ROOT
ATOM      1  O1  UNL     1      15.293   9.036  26.730  0.00  0.00    +0.000 OA
ATOM      2  C1  UNL     1      15.149   7.919  27.217  0.00  0.00    +0.000 C
ATOM      3  N2  UNL     1      16.137   7.123  27.763  0.00  0.00    +0.000 N
ATOM      4  C9  UNL     1      17.511   7.383  27.790  0.00  0.00    +0.000 A
ATOM      5  N3  UNL     1      18.005   8.461  27.155  0.00  0.00    +0.000 NA
ATOM      6  C10 UNL     1      19.345   8.636  27.164  0.00  0.00    +0.000 A
ATOM      7  C11 UNL     1      20.233   7.772  27.781  0.00  0.00    +0.000 A
ATOM      8  C12 UNL     1      19.715   6.665  28.441  0.00  0.00    +0.000 A
ATOM      9  C13 UNL     1      18.338   6.473  28.460  0.00  0.00    +0.000 A
ATOM     10  H   UNL     1      15.841   6.281  28.179  0.00  0.00    +0.000 HD
ENDROOT
BRANCH   2  11
ATOM     11  C2  UNL     1      13.743   7.339  27.465  0.00  0.00    +0.000 C
ATOM     12  N1  UNL     1      12.925   7.280  26.236  0.00  0.00    +0.000 N
ATOM     13  C3  UNL     1      12.903   6.116  25.517  0.00  0.00    +0.000 C
ATOM     14  O2  UNL     1      13.852   5.473  25.128  0.00  0.00    +0.000 OA
ATOM     15  C4  UNL     1      11.370   6.031  25.555  0.00  0.00    +0.000 C
ATOM     16  C5  UNL     1      11.437   7.313  26.389  0.00  0.00    +0.000 C
ATOM     17  S1  UNL     1      11.269   7.244  28.177  0.00  0.00    +0.000 S
ATOM     18  O3  UNL     1      11.315   5.860  28.614  0.00  0.00    +0.000 OA
ATOM     19  O4  UNL     1      10.197   8.118  28.608  0.00  0.00    +0.000 OA
ATOM     20  C6  UNL     1      12.889   8.023  28.544  0.00  0.00    +0.000 C
ATOM     21  C7  UNL     1      12.774   9.545  28.376  0.00  0.00    +0.000 C
ATOM     22  C8  UNL     1      13.318   7.673  29.970  0.00  0.00    +0.000 C
ENDBRANCH   2  11
BRANCH   9  23
ATOM     23  O5  UNL     1      17.882   5.384  29.152  0.00  0.00    +0.000 OA
ATOM     24  H   UNL     1      18.481   4.714  29.419  0.00  0.00    +0.000 HD
ENDBRANCH   9  23
TORSDOF 2
