ROOT
ATOM      1  C2  UNL     1      10.995   8.125  26.637  0.00  0.00    +0.000 C
ATOM      2  N1  UNL     1      12.401   8.543  26.632  0.00  0.00    +0.000 N
ATOM      3  C3  UNL     1      12.777   9.525  27.507  0.00  0.00    +0.000 C
ATOM      4  O2  UNL     1      12.180  10.525  27.831  0.00  0.00    +0.000 OA
ATOM      5  C4  UNL     1      14.016   8.737  27.958  0.00  0.00    +0.000 C
ATOM      6  C5  UNL     1      13.433   7.587  27.129  0.00  0.00    +0.000 C
ATOM      7  S1  UNL     1      12.388   6.354  27.917  0.00  0.00    +0.000 S
ATOM      8  O3  UNL     1      12.949   5.031  27.734  0.00  0.00    +0.000 OA
ATOM      9  O4  UNL     1      12.002   6.814  29.239  0.00  0.00    +0.000 OA
ATOM     10  C6  UNL     1      10.964   6.587  26.790  0.00  0.00    +0.000 C
ATOM     11  C7  UNL     1       9.673   6.104  27.456  0.00  0.00    +0.000 C
ATOM     12  C8  UNL     1      11.205   5.793  25.498  0.00  0.00    +0.000 C
ENDROOT
BRANCH   1  14
ATOM     13  O1  UNL     1      10.967   8.914  24.358  0.00  0.00    +0.000 OA
ATOM     14  C1  UNL     1      10.309   8.650  25.370  0.00  0.00    +0.000 C
ATOM     15  N2  UNL     1       8.952   8.732  25.309  0.00  0.00    +0.000 N
ATOM     16  C9  UNL     1       8.049   8.994  26.304  0.00  0.00    +0.000 A
ATOM     17  N3  UNL     1       8.308   9.541  27.536  0.00  0.00    +0.000 N
ATOM     18  C10 UNL     1       7.116   9.670  28.196  0.00  0.00    +0.000 A
ATOM     19  C11 UNL     1       6.160   9.235  27.308  0.00  0.00    +0.000 A
ATOM     20  N4  UNL     1       6.756   8.848  26.130  0.00  0.00    +0.000 NA
ATOM     21  C12 UNL     1       4.692   9.172  27.468  0.00  0.00    +0.000 C
ATOM     22  H   UNL     1       8.563   8.581  24.417  0.00  0.00    +0.000 HD
ATOM     23  H   UNL     1       9.194   9.795  27.882  0.00  0.00    +0.000 HD
ENDBRANCH   1  14
TORSDOF 1
