ROOT
ATOM      1  C2  UNL     1       7.831   8.738  25.897  0.00  0.00    +0.000 C
ATOM      2  N1  UNL     1       6.777   8.967  26.878  0.00  0.00    +0.000 N
ATOM      3  C3  UNL     1       5.825   9.928  26.706  0.00  0.00    +0.000 C
ATOM      4  O2  UNL     1       5.907  11.026  26.214  0.00  0.00    +0.000 OA
ATOM      5  C4  UNL     1       4.716   8.986  27.200  0.00  0.00    +0.000 C
ATOM      6  C5  UNL     1       5.784   7.886  27.104  0.00  0.00    +0.000 C
ATOM      7  S1  UNL     1       5.920   6.930  25.580  0.00  0.00    +0.000 S
ATOM      8  O3  UNL     1       4.692   7.057  24.815  0.00  0.00    +0.000 OA
ATOM      9  O4  UNL     1       6.441   5.611  25.881  0.00  0.00    +0.000 OA
ATOM     10  C6  UNL     1       7.233   7.901  24.746  0.00  0.00    +0.000 C
ATOM     11  C7  UNL     1       6.613   8.811  23.668  0.00  0.00    +0.000 C
ATOM     12  C8  UNL     1       8.224   6.963  24.043  0.00  0.00    +0.000 C
ENDROOT
BRANCH   1  14
ATOM     13  O1  UNL     1       8.886   7.705  27.817  0.00  0.00    +0.000 OA
ATOM     14  C1  UNL     1       8.983   8.029  26.637  0.00  0.00    +0.000 C
ATOM     15  N2  UNL     1      10.068   7.769  25.828  0.00  0.00    +0.000 N
ATOM     16  C9  UNL     1      11.248   7.098  26.163  0.00  0.00    +0.000 A
ATOM     17  N3  UNL     1      12.127   7.048  25.146  0.00  0.00    +0.000 NA
ATOM     18  C10 UNL     1      13.286   6.418  25.387  0.00  0.00    +0.000 A
ATOM     19  N4  UNL     1      13.638   5.841  26.536  0.00  0.00    +0.000 NA
ATOM     20  C11 UNL     1      12.721   5.919  27.511  0.00  0.00    +0.000 A
ATOM     21  C12 UNL     1      11.501   6.536  27.388  0.00  0.00    +0.000 A
ATOM     22  F1  UNL     1      13.028   5.350  28.686  0.00  0.00    +0.000 F
ATOM     23  H   UNL     1      10.004   8.094  24.901  0.00  0.00    +0.000 HD
ENDBRANCH   1  14
TORSDOF 1
