ROOT
ATOM      1  C2  UNL     1      13.367   7.048  27.804  0.00  0.00    +0.000 C
ATOM      2  N1  UNL     1      13.103   7.268  26.369  0.00  0.00    +0.000 N
ATOM      3  C3  UNL     1      13.024   6.172  25.550  0.00  0.00    +0.000 C
ATOM      4  O2  UNL     1      13.770   5.225  25.487  0.00  0.00    +0.000 OA
ATOM      5  C4  UNL     1      11.677   6.614  24.963  0.00  0.00    +0.000 C
ATOM      6  C5  UNL     1      11.749   7.763  25.971  0.00  0.00    +0.000 C
ATOM      7  S1  UNL     1      10.868   7.651  27.532  0.00  0.00    +0.000 S
ATOM      8  O3  UNL     1       9.969   8.779  27.673  0.00  0.00    +0.000 OA
ATOM      9  O4  UNL     1      10.387   6.295  27.726  0.00  0.00    +0.000 OA
ATOM     10  C6  UNL     1      12.349   7.901  28.586  0.00  0.00    +0.000 C
ATOM     11  C7  UNL     1      12.075   7.372  29.995  0.00  0.00    +0.000 C
ATOM     12  C8  UNL     1      12.685   9.401  28.632  0.00  0.00    +0.000 C
ENDROOT
BRANCH   1  14
ATOM     13  O1  UNL     1      15.260   6.971  29.290  0.00  0.00    +0.000 OA
ATOM     14  C1  UNL     1      14.848   7.250  28.167  0.00  0.00    +0.000 C
ATOM     15  N2  UNL     1      15.623   7.609  27.090  0.00  0.00    +0.000 N
ATOM     16  C9  UNL     1      16.982   7.869  27.107  0.00  0.00    +0.000 A
ATOM     17  N3  UNL     1      17.505   8.144  25.904  0.00  0.00    +0.000 NA
ATOM     18  C10 UNL     1      18.824   8.410  25.867  0.00  0.00    +0.000 A
ATOM     19  C11 UNL     1      19.628   8.417  26.981  0.00  0.00    +0.000 A
ATOM     20  C12 UNL     1      19.000   8.133  28.174  0.00  0.00    +0.000 A
ATOM     21  N4  UNL     1      17.681   7.864  28.247  0.00  0.00    +0.000 NA
ATOM     22  C13 UNL     1      19.776   8.113  29.456  0.00  0.00    +0.000 C
ATOM     23  H   UNL     1      15.166   7.690  26.221  0.00  0.00    +0.000 HD
ENDBRANCH   1  14
TORSDOF 1
