ROOT
ATOM      1  C8  UNL     1      13.065   7.382  27.606  0.00  0.00    +0.000 C
ATOM      2  N3  UNL     1      12.679   7.269  26.200  0.00  0.00    +0.000 N
ATOM      3  C9  UNL     1      12.839   6.108  25.502  0.00  0.00    +0.000 C
ATOM      4  O3  UNL     1      13.718   5.285  25.552  0.00  0.00    +0.000 OA
ATOM      5  C10 UNL     1      11.451   6.246  24.858  0.00  0.00    +0.000 C
ATOM      6  C11 UNL     1      11.238   7.388  25.859  0.00  0.00    +0.000 C
ATOM      7  S1  UNL     1      10.449   7.033  27.443  0.00  0.00    +0.000 S
ATOM      8  O4  UNL     1       9.796   8.231  27.934  0.00  0.00    +0.000 OA
ATOM      9  O5  UNL     1       9.703   5.792  27.350  0.00  0.00    +0.000 OA
ATOM     10  C12 UNL     1      11.948   6.745  28.453  0.00  0.00    +0.000 C
ATOM     11  C13 UNL     1      11.779   7.353  29.853  0.00  0.00    +0.000 C
ATOM     12  C14 UNL     1      12.184   5.233  28.631  0.00  0.00    +0.000 C
ENDROOT
BRANCH   1  13
ATOM     13  C7  UNL     1      13.270   8.873  27.885  0.00  0.00    +0.000 C
ATOM     14  O2  UNL     1      12.604   9.776  27.395  0.00  0.00    +0.000 OA
BRANCH  13  15
ATOM     15  O1  UNL     1      14.304   9.024  28.805  0.00  0.00    +0.000 OA
BRANCH  15  19
ATOM     16  C2  UNL     1      17.993   7.783  27.441  0.00  0.00    +0.000 A
ATOM     17  C3  UNL     1      17.496   7.241  28.623  0.00  0.00    +0.000 A
ATOM     18  C4  UNL     1      16.254   7.674  29.085  0.00  0.00    +0.000 A
ATOM     19  C5  UNL     1      15.569   8.641  28.358  0.00  0.00    +0.000 A
ATOM     20  C6  UNL     1      16.128   9.122  27.180  0.00  0.00    +0.000 A
ATOM     21  N2  UNL     1      17.328   8.710  26.705  0.00  0.00    +0.000 NA
BRANCH  16  23
ATOM     22  N1  UNL     1      20.309   7.007  26.550  0.00  0.00    +0.000 NA
ATOM     23  C1  UNL     1      19.268   7.363  26.924  0.00  0.00    +0.000 C
ENDBRANCH  16  23
ENDBRANCH  15  19
ENDBRANCH  13  15
ENDBRANCH   1  13
TORSDOF 4
