ROOT
ATOM      1  C8  UNL     1       7.828   7.480  26.477  0.00  0.00    +0.000 C
ATOM      2  N3  UNL     1       8.355   8.107  25.266  0.00  0.00    +0.000 N
ATOM      3  C9  UNL     1       8.639   7.382  24.146  0.00  0.00    +0.000 C
ATOM      4  O3  UNL     1       9.098   6.273  24.033  0.00  0.00    +0.000 OA
ATOM      5  C10 UNL     1       7.995   8.440  23.237  0.00  0.00    +0.000 C
ATOM      6  C11 UNL     1       7.483   9.067  24.540  0.00  0.00    +0.000 C
ATOM      7  S1  UNL     1       5.845   8.616  25.148  0.00  0.00    +0.000 S
ATOM      8  O4  UNL     1       5.317   9.701  25.954  0.00  0.00    +0.000 OA
ATOM      9  O5  UNL     1       5.052   8.074  24.061  0.00  0.00    +0.000 OA
ATOM     10  C12 UNL     1       6.320   7.250  26.270  0.00  0.00    +0.000 C
ATOM     11  C13 UNL     1       5.482   7.294  27.556  0.00  0.00    +0.000 C
ATOM     12  C14 UNL     1       6.055   5.892  25.592  0.00  0.00    +0.000 C
ENDROOT
BRANCH   1  13
ATOM     13  C7  UNL     1       8.150   8.426  27.636  0.00  0.00    +0.000 C
ATOM     14  O2  UNL     1       7.744   9.577  27.735  0.00  0.00    +0.000 OA
BRANCH  13  15
ATOM     15  O1  UNL     1       8.943   7.754  28.563  0.00  0.00    +0.000 OA
BRANCH  15  19
ATOM     16  C2  UNL     1      12.937   7.341  27.621  0.00  0.00    +0.000 A
ATOM     17  C3  UNL     1      12.341   8.592  27.490  0.00  0.00    +0.000 A
ATOM     18  C4  UNL     1      10.988   8.722  27.798  0.00  0.00    +0.000 A
ATOM     19  C5  UNL     1      10.283   7.595  28.207  0.00  0.00    +0.000 A
ATOM     20  C6  UNL     1      10.955   6.385  28.325  0.00  0.00    +0.000 A
ATOM     21  N2  UNL     1      12.271   6.235  28.041  0.00  0.00    +0.000 NA
BRANCH  16  23
ATOM     22  N1  UNL     1      15.463   6.989  27.117  0.00  0.00    +0.000 NA
ATOM     23  C1  UNL     1      14.332   7.160  27.319  0.00  0.00    +0.000 C
ENDBRANCH  16  23
ENDBRANCH  15  19
ENDBRANCH  13  15
ENDBRANCH   1  13
TORSDOF 4
