ROOT
ATOM      1  C2  UNL     1      13.855   8.455  28.863  0.00  0.00    +0.000 C
ATOM      2  N1  UNL     1      15.002   7.541  28.879  0.00  0.00    +0.000 N
ATOM      3  C3  UNL     1      15.404   7.003  27.687  0.00  0.00    +0.000 C
ATOM      4  O2  UNL     1      14.729   6.602  26.767  0.00  0.00    +0.000 OA
ATOM      5  C4  UNL     1      16.881   7.318  27.970  0.00  0.00    +0.000 C
ATOM      6  C5  UNL     1      16.354   8.096  29.180  0.00  0.00    +0.000 C
ATOM      7  S1  UNL     1      16.026   9.858  29.040  0.00  0.00    +0.000 S
ATOM      8  O3  UNL     1      16.803  10.592  30.019  0.00  0.00    +0.000 OA
ATOM      9  O4  UNL     1      16.044  10.249  27.641  0.00  0.00    +0.000 OA
ATOM     10  C6  UNL     1      14.280   9.754  29.584  0.00  0.00    +0.000 C
ATOM     11  C7  UNL     1      13.494  10.969  29.086  0.00  0.00    +0.000 C
ATOM     12  C8  UNL     1      14.230   9.702  31.118  0.00  0.00    +0.000 C
ENDROOT
BRANCH   1  14
ATOM     13  O1  UNL     1      12.760   7.096  30.527  0.00  0.00    +0.000 OA
ATOM     14  C1  UNL     1      12.643   7.751  29.487  0.00  0.00    +0.000 C
ATOM     15  N2  UNL     1      11.401   7.929  28.960  0.00  0.00    +0.000 N
ATOM     16  C9  UNL     1      11.029   8.135  27.658  0.00  0.00    +0.000 A
ATOM     17  N3  UNL     1      11.781   7.905  26.534  0.00  0.00    +0.000 N
ATOM     18  C10 UNL     1      11.007   8.201  25.444  0.00  0.00    +0.000 A
ATOM     19  C11 UNL     1       9.782   8.559  25.956  0.00  0.00    +0.000 A
ATOM     20  N4  UNL     1       9.806   8.482  27.329  0.00  0.00    +0.000 NA
ATOM     21  C12 UNL     1       8.548   8.956  25.244  0.00  0.00    +0.000 C
ATOM     22  H   UNL     1      10.662   7.905  29.610  0.00  0.00    +0.000 HD
ATOM     23  H   UNL     1      12.711   7.583  26.515  0.00  0.00    +0.000 HD
ENDBRANCH   1  14
TORSDOF 1
