ROOT
ATOM      1  O1  UNL     1      10.094   7.920  28.759  0.00  0.00    +0.000 OA
ATOM      2  C1  UNL     1      10.939   8.005  27.874  0.00  0.00    +0.000 C
ATOM      3  N2  UNL     1      10.715   8.298  26.543  0.00  0.00    +0.000 N
ATOM      4  C9  UNL     1       9.477   8.466  25.914  0.00  0.00    +0.000 A
ATOM      5  N3  UNL     1       8.339   8.244  26.596  0.00  0.00    +0.000 NA
ATOM      6  C10 UNL     1       7.172   8.366  25.926  0.00  0.00    +0.000 A
ATOM      7  C11 UNL     1       7.081   8.699  24.585  0.00  0.00    +0.000 A
ATOM      8  C12 UNL     1       8.260   8.936  23.890  0.00  0.00    +0.000 A
ATOM      9  C13 UNL     1       9.473   8.833  24.562  0.00  0.00    +0.000 A
ATOM     10  H   UNL     1      11.514   8.400  25.976  0.00  0.00    +0.000 HD
ENDROOT
BRANCH   2  11
ATOM     11  C2  UNL     1      12.443   7.989  28.211  0.00  0.00    +0.000 C
ATOM     12  N1  UNL     1      13.189   9.075  27.540  0.00  0.00    +0.000 N
ATOM     13  C3  UNL     1      13.400  10.243  28.220  0.00  0.00    +0.000 C
ATOM     14  O2  UNL     1      12.576  10.922  28.791  0.00  0.00    +0.000 OA
ATOM     15  C4  UNL     1      14.919  10.183  28.005  0.00  0.00    +0.000 C
ATOM     16  C5  UNL     1      14.648   8.861  27.285  0.00  0.00    +0.000 C
ATOM     17  S1  UNL     1      14.923   7.295  28.123  0.00  0.00    +0.000 S
ATOM     18  O3  UNL     1      15.174   7.539  29.532  0.00  0.00    +0.000 OA
ATOM     19  O4  UNL     1      15.824   6.469  27.346  0.00  0.00    +0.000 OA
ATOM     20  C6  UNL     1      13.204   6.683  27.936  0.00  0.00    +0.000 C
ATOM     21  C7  UNL     1      13.008   6.133  26.515  0.00  0.00    +0.000 C
ATOM     22  C8  UNL     1      12.930   5.591  28.974  0.00  0.00    +0.000 C
ENDBRANCH   2  11
BRANCH   9  23
ATOM     23  O5  UNL     1      10.600   9.108  23.835  0.00  0.00    +0.000 OA
ATOM     24  H   UNL     1      10.874   8.522  23.158  0.00  0.00    +0.000 HD
ENDBRANCH   9  23
TORSDOF 2
