ROOT
ATOM      1  C2  UNL     1      13.203   7.356  27.403  0.00  0.00    +0.000 C
ATOM      2  N1  UNL     1      12.701   7.253  26.019  0.00  0.00    +0.000 N
ATOM      3  C3  UNL     1      12.840   6.061  25.364  0.00  0.00    +0.000 C
ATOM      4  O2  UNL     1      13.829   5.373  25.271  0.00  0.00    +0.000 OA
ATOM      5  C4  UNL     1      11.352   6.003  24.994  0.00  0.00    +0.000 C
ATOM      6  C5  UNL     1      11.220   7.292  25.807  0.00  0.00    +0.000 C
ATOM      7  S1  UNL     1      10.628   7.237  27.503  0.00  0.00    +0.000 S
ATOM      8  O3  UNL     1       9.471   8.098  27.651  0.00  0.00    +0.000 OA
ATOM      9  O4  UNL     1      10.587   5.860  27.958  0.00  0.00    +0.000 OA
ATOM     10  C6  UNL     1      12.104   8.047  28.231  0.00  0.00    +0.000 C
ATOM     11  C7  UNL     1      12.185   7.729  29.725  0.00  0.00    +0.000 C
ATOM     12  C8  UNL     1      12.008   9.566  28.010  0.00  0.00    +0.000 C
ENDROOT
BRANCH   1  14
ATOM     13  O1  UNL     1      15.545   7.467  26.854  0.00  0.00    +0.000 OA
ATOM     14  C1  UNL     1      14.613   7.972  27.471  0.00  0.00    +0.000 C
ATOM     15  N2  UNL     1      14.634   9.183  28.143  0.00  0.00    +0.000 N
ATOM     16  C9  UNL     1      15.778   9.962  28.389  0.00  0.00    +0.000 A
ATOM     17  N3  UNL     1      16.992   9.478  28.052  0.00  0.00    +0.000 NA
ATOM     18  C10 UNL     1      18.060  10.261  28.320  0.00  0.00    +0.000 A
ATOM     19  C11 UNL     1      17.937  11.496  28.921  0.00  0.00    +0.000 A
ATOM     20  N4  UNL     1      16.739  12.001  29.279  0.00  0.00    +0.000 NA
ATOM     21  C12 UNL     1      15.656  11.221  29.005  0.00  0.00    +0.000 A
ATOM     22  C13 UNL     1      14.329  11.797  29.404  0.00  0.00    +0.000 C
ATOM     23  H   UNL     1      13.775   9.528  28.476  0.00  0.00    +0.000 HD
ENDBRANCH   1  14
TORSDOF 1
