ROOT
ATOM      1  C8  UNL     1       7.742   7.350  26.585  0.00  0.00    +0.000 C
ATOM      2  N3  UNL     1       6.802   6.366  26.051  0.00  0.00    +0.000 N
ATOM      3  C9  UNL     1       5.469   6.415  26.338  0.00  0.00    +0.000 C
ATOM      4  O3  UNL     1       4.904   6.723  27.357  0.00  0.00    +0.000 OA
ATOM      5  C10 UNL     1       5.092   6.120  24.878  0.00  0.00    +0.000 C
ATOM      6  C11 UNL     1       6.582   6.336  24.581  0.00  0.00    +0.000 C
ATOM      7  S1  UNL     1       7.150   7.975  24.085  0.00  0.00    +0.000 S
ATOM      8  O4  UNL     1       8.351   7.845  23.284  0.00  0.00    +0.000 OA
ATOM      9  O5  UNL     1       6.030   8.750  23.584  0.00  0.00    +0.000 OA
ATOM     10  C12 UNL     1       7.626   8.624  25.729  0.00  0.00    +0.000 C
ATOM     11  C13 UNL     1       8.918   9.449  25.628  0.00  0.00    +0.000 C
ATOM     12  C14 UNL     1       6.525   9.556  26.270  0.00  0.00    +0.000 C
ENDROOT
BRANCH   1  13
ATOM     13  C7  UNL     1       9.128   6.703  26.535  0.00  0.00    +0.000 C
ATOM     14  O2  UNL     1       9.595   6.118  25.567  0.00  0.00    +0.000 OA
BRANCH  13  15
ATOM     15  O1  UNL     1       9.773   6.920  27.751  0.00  0.00    +0.000 OA
BRANCH  15  19
ATOM     16  C2  UNL     1      13.892   7.110  27.699  0.00  0.00    +0.000 A
ATOM     17  C3  UNL     1      13.163   8.285  27.543  0.00  0.00    +0.000 A
ATOM     18  C4  UNL     1      11.771   8.212  27.550  0.00  0.00    +0.000 A
ATOM     19  C5  UNL     1      11.166   6.968  27.693  0.00  0.00    +0.000 A
ATOM     20  C6  UNL     1      11.966   5.844  27.857  0.00  0.00    +0.000 A
ATOM     21  N2  UNL     1      13.320   5.890  27.865  0.00  0.00    +0.000 NA
BRANCH  16  23
ATOM     22  N1  UNL     1      16.492   7.121  27.679  0.00  0.00    +0.000 NA
ATOM     23  C1  UNL     1      15.330   7.137  27.705  0.00  0.00    +0.000 C
ENDBRANCH  16  23
ENDBRANCH  15  19
ENDBRANCH  13  15
ENDBRANCH   1  13
TORSDOF 4
