ROOT
ATOM      1  C2  UNL     1      13.022   7.461  27.771  0.00  0.00    +0.000 C
ATOM      2  N1  UNL     1      12.656   7.402  26.360  0.00  0.00    +0.000 N
ATOM      3  C3  UNL     1      12.863   6.285  25.606  0.00  0.00    +0.000 C
ATOM      4  O2  UNL     1      13.764   5.483  25.631  0.00  0.00    +0.000 OA
ATOM      5  C4  UNL     1      11.486   6.424  24.937  0.00  0.00    +0.000 C
ATOM      6  C5  UNL     1      11.218   7.494  26.004  0.00  0.00    +0.000 C
ATOM      7  S1  UNL     1      10.421   7.008  27.549  0.00  0.00    +0.000 S
ATOM      8  O3  UNL     1       9.751   5.732  27.369  0.00  0.00    +0.000 OA
ATOM      9  O4  UNL     1       9.682   8.134  28.087  0.00  0.00    +0.000 OA
ATOM     10  C6  UNL     1      11.917   6.746  28.576  0.00  0.00    +0.000 C
ATOM     11  C7  UNL     1      12.214   5.239  28.701  0.00  0.00    +0.000 C
ATOM     12  C8  UNL     1      11.691   7.290  29.994  0.00  0.00    +0.000 C
ENDROOT
BRANCH   1  14
ATOM     13  O1  UNL     1      12.484   9.816  27.597  0.00  0.00    +0.000 OA
ATOM     14  C1  UNL     1      13.175   8.953  28.129  0.00  0.00    +0.000 C
ATOM     15  N2  UNL     1      14.108   9.179  29.118  0.00  0.00    +0.000 N
ATOM     16  C9  UNL     1      14.453  10.397  29.711  0.00  0.00    +0.000 A
ATOM     17  N3  UNL     1      15.435  10.275  30.622  0.00  0.00    +0.000 NA
ATOM     18  C10 UNL     1      15.822  11.401  31.239  0.00  0.00    +0.000 A
ATOM     19  N4  UNL     1      15.321  12.618  31.031  0.00  0.00    +0.000 NA
ATOM     20  C11 UNL     1      14.343  12.678  30.116  0.00  0.00    +0.000 A
ATOM     21  C12 UNL     1      13.861  11.599  29.418  0.00  0.00    +0.000 A
ATOM     22  F1  UNL     1      13.805  13.882  29.874  0.00  0.00    +0.000 F
ATOM     23  H   UNL     1      14.590   8.386  29.446  0.00  0.00    +0.000 HD
ENDBRANCH   1  14
TORSDOF 1
