ROOT
ATOM      1  O1  UNL     1      12.817  10.145  27.899  0.00  0.00    +0.000 OA
ATOM      2  C1  UNL     1      13.389   9.066  28.018  0.00  0.00    +0.000 C
ATOM      3  N2  UNL     1      13.057   7.882  27.388  0.00  0.00    +0.000 N
ATOM      4  C9  UNL     1      11.953   7.647  26.563  0.00  0.00    +0.000 A
ATOM      5  N3  UNL     1      11.023   8.604  26.392  0.00  0.00    +0.000 NA
ATOM      6  C10 UNL     1       9.948   8.306  25.630  0.00  0.00    +0.000 A
ATOM      7  C11 UNL     1       9.747   7.078  25.023  0.00  0.00    +0.000 A
ATOM      8  C12 UNL     1      10.716   6.098  25.197  0.00  0.00    +0.000 A
ATOM      9  C13 UNL     1      11.839   6.386  25.962  0.00  0.00    +0.000 A
ATOM     10  H   UNL     1      13.665   7.122  27.537  0.00  0.00    +0.000 HD
ENDROOT
BRANCH   2  11
ATOM     11  C2  UNL     1      14.731   8.959  28.768  0.00  0.00    +0.000 C
ATOM     12  N1  UNL     1      15.439   7.692  28.491  0.00  0.00    +0.000 N
ATOM     13  C3  UNL     1      16.384   7.670  27.501  0.00  0.00    +0.000 C
ATOM     14  O2  UNL     1      16.265   8.059  26.362  0.00  0.00    +0.000 OA
ATOM     15  C4  UNL     1      17.465   7.113  28.440  0.00  0.00    +0.000 C
ATOM     16  C5  UNL     1      16.392   7.187  29.529  0.00  0.00    +0.000 C
ATOM     17  S1  UNL     1      16.381   8.547  30.703  0.00  0.00    +0.000 S
ATOM     18  O3  UNL     1      17.331   9.559  30.279  0.00  0.00    +0.000 OA
ATOM     19  O4  UNL     1      16.407   8.032  32.057  0.00  0.00    +0.000 OA
ATOM     20  C6  UNL     1      14.690   9.129  30.295  0.00  0.00    +0.000 C
ATOM     21  C7  UNL     1      13.657   8.232  30.994  0.00  0.00    +0.000 C
ATOM     22  C8  UNL     1      14.524  10.583  30.739  0.00  0.00    +0.000 C
ENDBRANCH   2  11
BRANCH   9  23
ATOM     23  O5  UNL     1      12.775   5.394  26.074  0.00  0.00    +0.000 OA
ATOM     24  H   UNL     1      12.526   4.549  26.393  0.00  0.00    +0.000 HD
ENDBRANCH   9  23
TORSDOF 2
