ROOT
ATOM      1  C2  UNL     1       7.649   8.625  25.810  0.00  0.00    +0.000 C
ATOM      2  N1  UNL     1       6.646   8.318  26.848  0.00  0.00    +0.000 N
ATOM      3  C3  UNL     1       6.146   9.356  27.588  0.00  0.00    +0.000 C
ATOM      4  O2  UNL     1       6.746  10.254  28.126  0.00  0.00    +0.000 OA
ATOM      5  C4  UNL     1       4.692   8.947  27.318  0.00  0.00    +0.000 C
ATOM      6  C5  UNL     1       5.287   7.877  26.403  0.00  0.00    +0.000 C
ATOM      7  S1  UNL     1       5.395   8.161  24.633  0.00  0.00    +0.000 S
ATOM      8  O3  UNL     1       4.706   7.104  23.920  0.00  0.00    +0.000 OA
ATOM      9  O4  UNL     1       5.111   9.554  24.342  0.00  0.00    +0.000 OA
ATOM     10  C6  UNL     1       7.207   7.901  24.524  0.00  0.00    +0.000 C
ATOM     11  C7  UNL     1       7.747   8.552  23.250  0.00  0.00    +0.000 C
ATOM     12  C8  UNL     1       7.499   6.392  24.518  0.00  0.00    +0.000 C
ENDROOT
BRANCH   1  14
ATOM     13  O1  UNL     1      10.036   8.993  25.831  0.00  0.00    +0.000 OA
ATOM     14  C1  UNL     1       9.091   8.351  26.281  0.00  0.00    +0.000 C
ATOM     15  N2  UNL     1       9.167   7.451  27.329  0.00  0.00    +0.000 N
ATOM     16  H   UNL     1       8.310   7.087  27.650  0.00  0.00    +0.000 HD
BRANCH  15  17
ATOM     17  C9  UNL     1      10.323   6.991  27.996  0.00  0.00    +0.000 A
ATOM     18  C10 UNL     1      10.736   7.429  29.254  0.00  0.00    +0.000 A
ATOM     19  C11 UNL     1      11.904   6.914  29.833  0.00  0.00    +0.000 A
ATOM     20  C12 UNL     1      12.670   5.962  29.159  0.00  0.00    +0.000 A
ATOM     21  C13 UNL     1      12.270   5.522  27.901  0.00  0.00    +0.000 A
ATOM     22  C14 UNL     1      11.109   6.038  27.332  0.00  0.00    +0.000 A
ATOM     23  F1  UNL     1      10.742   5.611  26.114  0.00  0.00    +0.000 F
ENDBRANCH  15  17
ENDBRANCH   1  14
TORSDOF 2
