ROOT
ATOM      1  C2  UNL     1      11.155   8.248  26.877  0.00  0.00    +0.000 C
ATOM      2  N1  UNL     1      12.567   8.623  26.775  0.00  0.00    +0.000 N
ATOM      3  C3  UNL     1      13.227   9.265  27.782  0.00  0.00    +0.000 C
ATOM      4  O2  UNL     1      12.837  10.092  28.569  0.00  0.00    +0.000 OA
ATOM      5  C4  UNL     1      14.480   8.401  27.572  0.00  0.00    +0.000 C
ATOM      6  C5  UNL     1      13.581   7.546  26.667  0.00  0.00    +0.000 C
ATOM      7  S1  UNL     1      12.704   6.144  27.385  0.00  0.00    +0.000 S
ATOM      8  O3  UNL     1      12.522   5.119  26.376  0.00  0.00    +0.000 OA
ATOM      9  O4  UNL     1      13.313   5.792  28.655  0.00  0.00    +0.000 OA
ATOM     10  C6  UNL     1      11.083   6.950  27.714  0.00  0.00    +0.000 C
ATOM     11  C7  UNL     1       9.947   5.984  27.346  0.00  0.00    +0.000 C
ATOM     12  C8  UNL     1      10.957   7.267  29.216  0.00  0.00    +0.000 C
ENDROOT
BRANCH   1  14
ATOM     13  O1  UNL     1      11.400   7.637  24.568  0.00  0.00    +0.000 OA
ATOM     14  C1  UNL     1      10.645   8.081  25.442  0.00  0.00    +0.000 C
ATOM     15  N2  UNL     1       9.372   8.352  25.066  0.00  0.00    +0.000 N
ATOM     16  H   UNL     1       9.231   8.139  24.115  0.00  0.00    +0.000 HD
BRANCH  15  17
ATOM     17  C9  UNL     1       8.206   8.847  25.644  0.00  0.00    +0.000 A
ATOM     18  C10 UNL     1       8.038   9.263  26.951  0.00  0.00    +0.000 A
ATOM     19  C11 UNL     1       6.786   9.732  27.354  0.00  0.00    +0.000 A
ATOM     20  C12 UNL     1       5.739   9.770  26.446  0.00  0.00    +0.000 A
ATOM     21  C13 UNL     1       5.978   9.331  25.154  0.00  0.00    +0.000 A
ATOM     22  N3  UNL     1       7.189   8.875  24.756  0.00  0.00    +0.000 NA
ATOM     23  C14 UNL     1       4.879   9.349  24.133  0.00  0.00    +0.000 C
ENDBRANCH  15  17
ENDBRANCH   1  14
TORSDOF 2
