ROOT
ATOM      1  C2  UNL     1      14.760   9.130  28.763  0.00  0.00    +0.000 C
ATOM      2  N1  UNL     1      15.435   7.858  28.438  0.00  0.00    +0.000 N
ATOM      3  C3  UNL     1      16.366   7.852  27.436  0.00  0.00    +0.000 C
ATOM      4  O2  UNL     1      16.266   8.317  26.325  0.00  0.00    +0.000 OA
ATOM      5  C4  UNL     1      17.432   7.197  28.325  0.00  0.00    +0.000 C
ATOM      6  C5  UNL     1      16.392   7.298  29.443  0.00  0.00    +0.000 C
ATOM      7  S1  UNL     1      16.468   8.642  30.633  0.00  0.00    +0.000 S
ATOM      8  O3  UNL     1      16.535   8.108  31.979  0.00  0.00    +0.000 OA
ATOM      9  O4  UNL     1      17.428   9.633  30.183  0.00  0.00    +0.000 OA
ATOM     10  C6  UNL     1      14.779   9.272  30.296  0.00  0.00    +0.000 C
ATOM     11  C7  UNL     1      14.663  10.722  30.768  0.00  0.00    +0.000 C
ATOM     12  C8  UNL     1      13.755   8.386  31.025  0.00  0.00    +0.000 C
ENDROOT
BRANCH   1  14
ATOM     13  O1  UNL     1      12.725  10.283  28.189  0.00  0.00    +0.000 OA
ATOM     14  C1  UNL     1      13.390   9.259  28.071  0.00  0.00    +0.000 C
ATOM     15  N2  UNL     1      13.119   8.198  27.223  0.00  0.00    +0.000 N
ATOM     16  C9  UNL     1      11.938   8.025  26.481  0.00  0.00    +0.000 A
ATOM     17  N3  UNL     1      10.915   8.886  26.658  0.00  0.00    +0.000 NA
ATOM     18  C10 UNL     1       9.798   8.669  25.929  0.00  0.00    +0.000 A
ATOM     19  C11 UNL     1       9.685   7.615  25.047  0.00  0.00    +0.000 A
ATOM     20  N4  UNL     1      10.687   6.732  24.857  0.00  0.00    +0.000 NA
ATOM     21  C12 UNL     1      11.820   6.948  25.583  0.00  0.00    +0.000 A
ATOM     22  C13 UNL     1      12.927   5.961  25.358  0.00  0.00    +0.000 C
ATOM     23  H   UNL     1      13.813   7.506  27.132  0.00  0.00    +0.000 HD
ENDBRANCH   1  14
TORSDOF 1
