ROOT
ATOM      1  C2  UNL     1      12.253   8.714  28.208  0.00  0.00    +0.000 C
ATOM      2  N1  UNL     1      13.435   9.491  27.851  0.00  0.00    +0.000 N
ATOM      3  C3  UNL     1      14.178  10.147  28.787  0.00  0.00    +0.000 C
ATOM      4  O2  UNL     1      13.836  10.720  29.792  0.00  0.00    +0.000 OA
ATOM      5  C4  UNL     1      15.492   9.698  28.129  0.00  0.00    +0.000 C
ATOM      6  C5  UNL     1      14.604   8.769  27.288  0.00  0.00    +0.000 C
ATOM      7  S1  UNL     1      14.312   7.083  27.862  0.00  0.00    +0.000 S
ATOM      8  O3  UNL     1      15.331   6.716  28.830  0.00  0.00    +0.000 OA
ATOM      9  O4  UNL     1      14.066   6.220  26.723  0.00  0.00    +0.000 OA
ATOM     10  C6  UNL     1      12.729   7.349  28.747  0.00  0.00    +0.000 C
ATOM     11  C7  UNL     1      12.978   7.415  30.267  0.00  0.00    +0.000 C
ATOM     12  C8  UNL     1      11.771   6.178  28.488  0.00  0.00    +0.000 C
ENDROOT
BRANCH   1  14
ATOM     13  O1  UNL     1      11.872   8.252  25.861  0.00  0.00    +0.000 OA
ATOM     14  C1  UNL     1      11.391   8.603  26.934  0.00  0.00    +0.000 C
ATOM     15  N2  UNL     1      10.060   8.885  27.154  0.00  0.00    +0.000 N
ATOM     16  C9  UNL     1       9.007   8.828  26.236  0.00  0.00    +0.000 A
ATOM     17  N3  UNL     1       7.830   9.205  26.767  0.00  0.00    +0.000 NA
ATOM     18  C10 UNL     1       6.768   9.175  25.950  0.00  0.00    +0.000 A
ATOM     19  N4  UNL     1       6.776   8.806  24.669  0.00  0.00    +0.000 NA
ATOM     20  C11 UNL     1       7.976   8.437  24.196  0.00  0.00    +0.000 A
ATOM     21  C12 UNL     1       9.135   8.425  24.931  0.00  0.00    +0.000 A
ATOM     22  F1  UNL     1       8.035   8.055  22.913  0.00  0.00    +0.000 F
ATOM     23  H   UNL     1       9.823   9.159  28.069  0.00  0.00    +0.000 HD
ENDBRANCH   1  14
TORSDOF 1
