ROOT
ATOM      1  C2  UNL     1      11.026   7.126  26.839  0.00  0.00    +0.000 C
ATOM      2  N1  UNL     1      12.353   6.501  26.839  0.00  0.00    +0.000 N
ATOM      3  C3  UNL     1      13.078   6.547  25.680  0.00  0.00    +0.000 C
ATOM      4  O2  UNL     1      12.699   6.419  24.539  0.00  0.00    +0.000 OA
ATOM      5  C4  UNL     1      14.350   6.990  26.418  0.00  0.00    +0.000 C
ATOM      6  C5  UNL     1      13.441   7.130  27.643  0.00  0.00    +0.000 C
ATOM      7  S1  UNL     1      12.690   8.719  28.025  0.00  0.00    +0.000 S
ATOM      8  O3  UNL     1      13.069   9.145  29.357  0.00  0.00    +0.000 OA
ATOM      9  O4  UNL     1      12.842   9.616  26.893  0.00  0.00    +0.000 OA
ATOM     10  C6  UNL     1      10.967   8.099  28.038  0.00  0.00    +0.000 C
ATOM     11  C7  UNL     1       9.986   9.248  27.795  0.00  0.00    +0.000 C
ATOM     12  C8  UNL     1      10.673   7.449  29.398  0.00  0.00    +0.000 C
ENDROOT
BRANCH   1  14
ATOM     13  O1  UNL     1      10.186   4.928  27.369  0.00  0.00    +0.000 OA
ATOM     14  C1  UNL     1       9.954   6.029  26.859  0.00  0.00    +0.000 C
ATOM     15  N2  UNL     1       8.697   6.291  26.410  0.00  0.00    +0.000 N
ATOM     16  C9  UNL     1       8.287   7.135  25.413  0.00  0.00    +0.000 A
ATOM     17  N3  UNL     1       9.060   7.684  24.421  0.00  0.00    +0.000 N
ATOM     18  C10 UNL     1       8.240   8.426  23.613  0.00  0.00    +0.000 A
ATOM     19  C11 UNL     1       6.975   8.256  24.126  0.00  0.00    +0.000 A
ATOM     20  N4  UNL     1       7.021   7.429  25.223  0.00  0.00    +0.000 NA
ATOM     21  C12 UNL     1       5.688   8.803  23.645  0.00  0.00    +0.000 C
ATOM     22  H   UNL     1       7.977   5.803  26.870  0.00  0.00    +0.000 HD
ATOM     23  H   UNL     1      10.031   7.566  24.310  0.00  0.00    +0.000 HD
ENDBRANCH   1  14
TORSDOF 1
