ROOT
ATOM      1  C2  UNL     1      13.492   8.420  28.004  0.00  0.00    +0.000 C
ATOM      2  N1  UNL     1      14.496   9.485  28.081  0.00  0.00    +0.000 N
ATOM      3  C3  UNL     1      14.328  10.593  28.859  0.00  0.00    +0.000 C
ATOM      4  O2  UNL     1      13.330  11.213  29.129  0.00  0.00    +0.000 OA
ATOM      5  C4  UNL     1      15.796  10.553  29.311  0.00  0.00    +0.000 C
ATOM      6  C5  UNL     1      15.825   9.164  28.655  0.00  0.00    +0.000 C
ATOM      7  S1  UNL     1      15.451   7.718  29.664  0.00  0.00    +0.000 S
ATOM      8  O3  UNL     1      16.170   6.569  29.148  0.00  0.00    +0.000 OA
ATOM      9  O4  UNL     1      15.573   8.062  31.069  0.00  0.00    +0.000 OA
ATOM     10  C6  UNL     1      13.665   7.533  29.257  0.00  0.00    +0.000 C
ATOM     11  C7  UNL     1      13.335   6.045  29.069  0.00  0.00    +0.000 C
ATOM     12  C8  UNL     1      12.811   8.055  30.428  0.00  0.00    +0.000 C
ENDROOT
BRANCH   1  14
ATOM     13  O1  UNL     1      14.906   7.471  26.311  0.00  0.00    +0.000 OA
ATOM     14  C1  UNL     1      13.745   7.679  26.687  0.00  0.00    +0.000 C
ATOM     15  N2  UNL     1      12.754   7.182  25.908  0.00  0.00    +0.000 N
ATOM     16  H   UNL     1      13.123   6.703  25.132  0.00  0.00    +0.000 HD
BRANCH  15  17
ATOM     17  C9  UNL     1      11.363   7.156  25.897  0.00  0.00    +0.000 A
ATOM     18  C10 UNL     1      10.539   6.356  26.666  0.00  0.00    +0.000 A
ATOM     19  C11 UNL     1       9.156   6.469  26.515  0.00  0.00    +0.000 A
ATOM     20  C12 UNL     1       8.634   7.374  25.603  0.00  0.00    +0.000 A
ATOM     21  C13 UNL     1       9.518   8.139  24.860  0.00  0.00    +0.000 A
ATOM     22  N3  UNL     1      10.861   8.033  25.001  0.00  0.00    +0.000 NA
ATOM     23  C14 UNL     1       9.006   9.129  23.858  0.00  0.00    +0.000 C
ENDBRANCH  15  17
ENDBRANCH   1  14
TORSDOF 2
