ROOT
ATOM      1  C2  UNL     1      16.389   8.907  28.638  0.00  0.00    +0.000 C
ATOM      2  N1  UNL     1      16.065  10.300  28.276  0.00  0.00    +0.000 N
ATOM      3  C3  UNL     1      15.102  10.952  28.997  0.00  0.00    +0.000 C
ATOM      4  O2  UNL     1      13.999  10.559  29.292  0.00  0.00    +0.000 OA
ATOM      5  C4  UNL     1      16.020  12.148  29.287  0.00  0.00    +0.000 C
ATOM      6  C5  UNL     1      17.096  11.351  28.546  0.00  0.00    +0.000 C
ATOM      7  S1  UNL     1      18.317  10.406  29.466  0.00  0.00    +0.000 S
ATOM      8  O3  UNL     1      19.652  10.825  29.089  0.00  0.00    +0.000 OA
ATOM      9  O4  UNL     1      17.929  10.342  30.863  0.00  0.00    +0.000 OA
ATOM     10  C6  UNL     1      17.924   8.797  28.679  0.00  0.00    +0.000 C
ATOM     11  C7  UNL     1      18.422   7.652  29.563  0.00  0.00    +0.000 C
ATOM     12  C8  UNL     1      18.590   8.735  27.294  0.00  0.00    +0.000 C
ENDROOT
BRANCH   1  14
ATOM     13  O1  UNL     1      16.163   6.813  27.468  0.00  0.00    +0.000 OA
ATOM     14  C1  UNL     1      15.643   7.885  27.758  0.00  0.00    +0.000 C
ATOM     15  N2  UNL     1      14.333   8.257  27.503  0.00  0.00    +0.000 N
ATOM     16  C9  UNL     1      13.420   7.543  26.708  0.00  0.00    +0.000 A
ATOM     17  N3  UNL     1      13.843   6.454  26.034  0.00  0.00    +0.000 NA
ATOM     18  C10 UNL     1      12.929   5.810  25.275  0.00  0.00    +0.000 A
ATOM     19  C11 UNL     1      11.622   6.237  25.173  0.00  0.00    +0.000 A
ATOM     20  N4  UNL     1      11.173   7.328  25.826  0.00  0.00    +0.000 NA
ATOM     21  C12 UNL     1      12.086   7.979  26.599  0.00  0.00    +0.000 A
ATOM     22  C13 UNL     1      11.572   9.187  27.325  0.00  0.00    +0.000 C
ATOM     23  H   UNL     1      14.014   9.093  27.914  0.00  0.00    +0.000 HD
ENDBRANCH   1  14
TORSDOF 1
