ROOT
ATOM      1  O1  UNL     1       9.412   8.445  28.088  0.00  0.00    +0.000 OA
ATOM      2  C1  UNL     1       9.947   8.133  27.030  0.00  0.00    +0.000 C
ATOM      3  N2  UNL     1       9.375   8.164  25.773  0.00  0.00    +0.000 N
ATOM      4  C9  UNL     1       8.046   8.466  25.461  0.00  0.00    +0.000 A
ATOM      5  N3  UNL     1       7.151   8.671  26.444  0.00  0.00    +0.000 NA
ATOM      6  C10 UNL     1       5.868   8.905  26.089  0.00  0.00    +0.000 A
ATOM      7  C11 UNL     1       5.424   8.941  24.778  0.00  0.00    +0.000 A
ATOM      8  C12 UNL     1       6.355   8.737  23.767  0.00  0.00    +0.000 A
ATOM      9  C13 UNL     1       7.684   8.511  24.108  0.00  0.00    +0.000 A
ATOM     10  H   UNL     1       9.966   7.949  25.017  0.00  0.00    +0.000 HD
ENDROOT
BRANCH   2  11
ATOM     11  C2  UNL     1      11.461   7.847  26.962  0.00  0.00    +0.000 C
ATOM     12  N1  UNL     1      11.761   6.433  26.655  0.00  0.00    +0.000 N
ATOM     13  C3  UNL     1      11.984   6.078  25.352  0.00  0.00    +0.000 C
ATOM     14  O2  UNL     1      11.289   6.324  24.393  0.00  0.00    +0.000 OA
ATOM     15  C4  UNL     1      13.341   5.438  25.679  0.00  0.00    +0.000 C
ATOM     16  C5  UNL     1      13.074   5.885  27.118  0.00  0.00    +0.000 C
ATOM     17  S1  UNL     1      13.858   7.363  27.772  0.00  0.00    +0.000 S
ATOM     18  O3  UNL     1      14.506   8.085  26.692  0.00  0.00    +0.000 OA
ATOM     19  O4  UNL     1      14.584   7.044  28.985  0.00  0.00    +0.000 OA
ATOM     20  C6  UNL     1      12.296   8.228  28.194  0.00  0.00    +0.000 C
ATOM     21  C7  UNL     1      11.746   7.674  29.517  0.00  0.00    +0.000 C
ATOM     22  C8  UNL     1      12.555   9.732  28.311  0.00  0.00    +0.000 C
ENDBRANCH   2  11
BRANCH   9  23
ATOM     23  O5  UNL     1       8.562   8.349  23.071  0.00  0.00    +0.000 OA
ATOM     24  H   UNL     1       9.202   7.665  23.102  0.00  0.00    +0.000 HD
ENDBRANCH   9  23
TORSDOF 2
