ROOT
ATOM      1  C2  UNL     1      13.592   7.513  27.488  0.00  0.00    +0.000 C
ATOM      2  N1  UNL     1      12.924   7.375  26.181  0.00  0.00    +0.000 N
ATOM      3  C3  UNL     1      12.969   6.159  25.554  0.00  0.00    +0.000 C
ATOM      4  O2  UNL     1      13.933   5.457  25.363  0.00  0.00    +0.000 OA
ATOM      5  C4  UNL     1      11.444   6.106  25.380  0.00  0.00    +0.000 C
ATOM      6  C5  UNL     1      11.427   7.427  26.151  0.00  0.00    +0.000 C
ATOM      7  S1  UNL     1      11.048   7.448  27.908  0.00  0.00    +0.000 S
ATOM      8  O3  UNL     1      11.046   6.090  28.421  0.00  0.00    +0.000 OA
ATOM      9  O4  UNL     1       9.934   8.337  28.165  0.00  0.00    +0.000 OA
ATOM     10  C6  UNL     1      12.616   8.255  28.416  0.00  0.00    +0.000 C
ATOM     11  C7  UNL     1      12.878   7.992  29.900  0.00  0.00    +0.000 C
ATOM     12  C8  UNL     1      12.515   9.766  28.149  0.00  0.00    +0.000 C
ENDROOT
BRANCH   1  14
ATOM     13  O1  UNL     1      15.197   9.307  27.258  0.00  0.00    +0.000 OA
ATOM     14  C1  UNL     1      15.011   8.099  27.356  0.00  0.00    +0.000 C
ATOM     15  N2  UNL     1      16.008   7.149  27.514  0.00  0.00    +0.000 N
ATOM     16  H   UNL     1      15.706   6.226  27.677  0.00  0.00    +0.000 HD
BRANCH  15  17
ATOM     17  C9  UNL     1      17.403   7.349  27.469  0.00  0.00    +0.000 A
ATOM     18  C10 UNL     1      18.189   6.777  28.476  0.00  0.00    +0.000 A
ATOM     19  N3  UNL     1      19.539   6.877  28.555  0.00  0.00    +0.000 NA
ATOM     20  C11 UNL     1      20.140   7.590  27.576  0.00  0.00    +0.000 A
ATOM     21  C12 UNL     1      19.450   8.190  26.539  0.00  0.00    +0.000 A
ATOM     22  C13 UNL     1      18.066   8.071  26.478  0.00  0.00    +0.000 A
ATOM     23  F1  UNL     1      20.107   8.878  25.596  0.00  0.00    +0.000 F
ENDBRANCH  15  17
ENDBRANCH   1  14
TORSDOF 2
