ROOT
ATOM      1  C2  UNL     1      12.790   7.501  27.492  0.00  0.00    +0.000 C
ATOM      2  N1  UNL     1      12.033   7.002  28.644  0.00  0.00    +0.000 N
ATOM      3  C3  UNL     1      12.223   5.703  29.035  0.00  0.00    +0.000 C
ATOM      4  O2  UNL     1      12.379   4.703  28.378  0.00  0.00    +0.000 OA
ATOM      5  C4  UNL     1      12.338   6.105  30.512  0.00  0.00    +0.000 C
ATOM      6  C5  UNL     1      12.340   7.544  29.996  0.00  0.00    +0.000 C
ATOM      7  S1  UNL     1      13.897   8.378  29.669  0.00  0.00    +0.000 S
ATOM      8  O3  UNL     1      13.989   9.598  30.446  0.00  0.00    +0.000 OA
ATOM      9  O4  UNL     1      14.987   7.418  29.679  0.00  0.00    +0.000 OA
ATOM     10  C6  UNL     1      13.519   8.788  27.928  0.00  0.00    +0.000 C
ATOM     11  C7  UNL     1      14.814   9.020  27.146  0.00  0.00    +0.000 C
ATOM     12  C8  UNL     1      12.650  10.053  27.878  0.00  0.00    +0.000 C
ENDROOT
BRANCH   1  14
ATOM     13  O1  UNL     1      12.228   7.398  25.154  0.00  0.00    +0.000 OA
ATOM     14  C1  UNL     1      11.862   7.705  26.285  0.00  0.00    +0.000 C
ATOM     15  N2  UNL     1      10.616   8.178  26.650  0.00  0.00    +0.000 N
ATOM     16  C9  UNL     1       9.521   8.335  25.784  0.00  0.00    +0.000 A
ATOM     17  N3  UNL     1       9.561   7.877  24.520  0.00  0.00    +0.000 NA
ATOM     18  C10 UNL     1       8.463   8.060  23.750  0.00  0.00    +0.000 A
ATOM     19  C11 UNL     1       7.303   8.675  24.193  0.00  0.00    +0.000 A
ATOM     20  C12 UNL     1       7.264   9.132  25.505  0.00  0.00    +0.000 A
ATOM     21  C13 UNL     1       8.385   8.956  26.304  0.00  0.00    +0.000 A
ATOM     22  F1  UNL     1       8.367   9.383  27.578  0.00  0.00    +0.000 F
ATOM     23  H   UNL     1      10.485   8.426  27.594  0.00  0.00    +0.000 HD
ENDBRANCH   1  14
TORSDOF 1
