ROOT
ATOM      1  C2  UNL     1      13.027   7.703  26.993  0.00  0.00    +0.000 C
ATOM      2  N1  UNL     1      14.407   7.386  27.369  0.00  0.00    +0.000 N
ATOM      3  C3  UNL     1      15.398   8.325  27.369  0.00  0.00    +0.000 C
ATOM      4  O2  UNL     1      15.581   9.268  26.641  0.00  0.00    +0.000 OA
ATOM      5  C4  UNL     1      15.978   7.777  28.683  0.00  0.00    +0.000 C
ATOM      6  C5  UNL     1      14.682   6.956  28.761  0.00  0.00    +0.000 C
ATOM      7  S1  UNL     1      13.268   7.643  29.643  0.00  0.00    +0.000 S
ATOM      8  O3  UNL     1      12.476   6.565  30.204  0.00  0.00    +0.000 OA
ATOM      9  O4  UNL     1      13.714   8.722  30.506  0.00  0.00    +0.000 OA
ATOM     10  C6  UNL     1      12.358   8.368  28.217  0.00  0.00    +0.000 C
ATOM     11  C7  UNL     1      10.855   8.101  28.380  0.00  0.00    +0.000 C
ATOM     12  C8  UNL     1      12.560   9.896  28.196  0.00  0.00    +0.000 C
ENDROOT
BRANCH   1  14
ATOM     13  O1  UNL     1      12.896   5.307  26.913  0.00  0.00    +0.000 OA
ATOM     14  C1  UNL     1      12.375   6.380  26.581  0.00  0.00    +0.000 C
ATOM     15  N2  UNL     1      11.207   6.304  25.897  0.00  0.00    +0.000 N
ATOM     16  H   UNL     1      10.934   5.368  25.768  0.00  0.00    +0.000 HD
BRANCH  15  17
ATOM     17  C9  UNL     1      10.286   7.176  25.325  0.00  0.00    +0.000 A
ATOM     18  C10 UNL     1      10.521   8.469  24.893  0.00  0.00    +0.000 A
ATOM     19  C11 UNL     1       9.466   9.198  24.343  0.00  0.00    +0.000 A
ATOM     20  C12 UNL     1       8.208   8.621  24.240  0.00  0.00    +0.000 A
ATOM     21  C13 UNL     1       8.044   7.325  24.700  0.00  0.00    +0.000 A
ATOM     22  N3  UNL     1       9.063   6.612  25.235  0.00  0.00    +0.000 NA
ATOM     23  C14 UNL     1       6.705   6.656  24.614  0.00  0.00    +0.000 C
ENDBRANCH  15  17
ENDBRANCH   1  14
TORSDOF 2
