ROOT
ATOM      1  C2  UNL     1      11.429   7.776  27.242  0.00  0.00    +0.000 C
ATOM      2  N1  UNL     1      11.744   6.437  26.708  0.00  0.00    +0.000 N
ATOM      3  C3  UNL     1      11.832   6.282  25.352  0.00  0.00    +0.000 C
ATOM      4  O2  UNL     1      11.054   6.658  24.508  0.00  0.00    +0.000 OA
ATOM      5  C4  UNL     1      13.218   5.629  25.440  0.00  0.00    +0.000 C
ATOM      6  C5  UNL     1      13.119   5.896  26.943  0.00  0.00    +0.000 C
ATOM      7  S1  UNL     1      13.933   7.326  27.664  0.00  0.00    +0.000 S
ATOM      8  O3  UNL     1      14.834   6.903  28.718  0.00  0.00    +0.000 OA
ATOM      9  O4  UNL     1      14.395   8.206  26.607  0.00  0.00    +0.000 OA
ATOM     10  C6  UNL     1      12.412   8.044  28.396  0.00  0.00    +0.000 C
ATOM     11  C7  UNL     1      12.625   9.533  28.674  0.00  0.00    +0.000 C
ATOM     12  C8  UNL     1      12.077   7.297  29.698  0.00  0.00    +0.000 C
ENDROOT
BRANCH   1  14
ATOM     13  O1  UNL     1       9.542   8.056  28.713  0.00  0.00    +0.000 OA
ATOM     14  C1  UNL     1       9.930   7.945  27.555  0.00  0.00    +0.000 C
ATOM     15  N2  UNL     1       9.162   8.109  26.413  0.00  0.00    +0.000 N
ATOM     16  C9  UNL     1       7.765   8.254  26.381  0.00  0.00    +0.000 A
ATOM     17  N3  UNL     1       7.061   8.125  27.525  0.00  0.00    +0.000 NA
ATOM     18  C10 UNL     1       5.720   8.262  27.438  0.00  0.00    +0.000 A
ATOM     19  C11 UNL     1       5.080   8.512  26.243  0.00  0.00    +0.000 A
ATOM     20  N4  UNL     1       5.755   8.635  25.082  0.00  0.00    +0.000 NA
ATOM     21  C12 UNL     1       7.109   8.505  25.162  0.00  0.00    +0.000 A
ATOM     22  C13 UNL     1       7.848   8.649  23.864  0.00  0.00    +0.000 C
ATOM     23  H   UNL     1       9.637   8.125  25.551  0.00  0.00    +0.000 HD
ENDBRANCH   1  14
TORSDOF 1
