ROOT
ATOM      1  C2  UNL     1       9.351   6.825  25.971  0.00  0.00    +0.000 C
ATOM      2  N1  UNL     1       8.202   6.504  25.121  0.00  0.00    +0.000 N
ATOM      3  C3  UNL     1       6.918   6.558  25.579  0.00  0.00    +0.000 C
ATOM      4  O2  UNL     1       6.465   6.301  26.667  0.00  0.00    +0.000 OA
ATOM      5  C4  UNL     1       6.430   7.198  24.270  0.00  0.00    +0.000 C
ATOM      6  C5  UNL     1       7.923   7.369  23.949  0.00  0.00    +0.000 C
ATOM      7  S1  UNL     1       8.744   8.903  24.422  0.00  0.00    +0.000 S
ATOM      8  O3  UNL     1       9.822   9.180  23.493  0.00  0.00    +0.000 OA
ATOM      9  O4  UNL     1       7.747   9.926  24.680  0.00  0.00    +0.000 OA
ATOM     10  C6  UNL     1       9.466   8.365  26.027  0.00  0.00    +0.000 C
ATOM     11  C7  UNL     1      10.891   8.922  26.159  0.00  0.00    +0.000 C
ATOM     12  C8  UNL     1       8.632   8.940  27.188  0.00  0.00    +0.000 C
ENDROOT
BRANCH   1  14
ATOM     13  O1  UNL     1      10.519   5.780  24.151  0.00  0.00    +0.000 OA
ATOM     14  C1  UNL     1      10.566   6.143  25.334  0.00  0.00    +0.000 C
ATOM     15  N2  UNL     1      11.738   5.946  25.984  0.00  0.00    +0.000 N
ATOM     16  H   UNL     1      12.406   5.534  25.391  0.00  0.00    +0.000 HD
BRANCH  15  17
ATOM     17  C9  UNL     1      12.265   6.163  27.254  0.00  0.00    +0.000 A
ATOM     18  C10 UNL     1      11.729   5.747  28.459  0.00  0.00    +0.000 A
ATOM     19  C11 UNL     1      12.403   6.060  29.641  0.00  0.00    +0.000 A
ATOM     20  C12 UNL     1      13.587   6.780  29.589  0.00  0.00    +0.000 A
ATOM     21  C13 UNL     1      14.062   7.171  28.348  0.00  0.00    +0.000 A
ATOM     22  N3  UNL     1      13.414   6.870  27.197  0.00  0.00    +0.000 NA
ATOM     23  C14 UNL     1      15.336   7.952  28.237  0.00  0.00    +0.000 C
ENDBRANCH  15  17
ENDBRANCH   1  14
TORSDOF 2
