ROOT
ATOM      1  C2  UNL     1      12.740   8.183  28.241  0.00  0.00    +0.000 C
ATOM      2  N1  UNL     1      13.572   9.245  27.643  0.00  0.00    +0.000 N
ATOM      3  C3  UNL     1      13.791  10.384  28.371  0.00  0.00    +0.000 C
ATOM      4  O2  UNL     1      12.989  11.057  28.974  0.00  0.00    +0.000 OA
ATOM      5  C4  UNL     1      15.311  10.304  28.183  0.00  0.00    +0.000 C
ATOM      6  C5  UNL     1      15.035   8.978  27.472  0.00  0.00    +0.000 C
ATOM      7  S1  UNL     1      15.208   7.425  28.358  0.00  0.00    +0.000 S
ATOM      8  O3  UNL     1      16.147   6.565  27.667  0.00  0.00    +0.000 OA
ATOM      9  O4  UNL     1      15.356   7.687  29.779  0.00  0.00    +0.000 OA
ATOM     10  C6  UNL     1      13.494   6.853  28.045  0.00  0.00    +0.000 C
ATOM     11  C7  UNL     1      13.110   5.786  29.071  0.00  0.00    +0.000 C
ATOM     12  C8  UNL     1      13.407   6.283  26.619  0.00  0.00    +0.000 C
ENDROOT
BRANCH   1  14
ATOM     13  O1  UNL     1      10.350   8.145  28.530  0.00  0.00    +0.000 OA
ATOM     14  C1  UNL     1      11.286   8.224  27.740  0.00  0.00    +0.000 C
ATOM     15  N2  UNL     1      11.187   8.503  26.397  0.00  0.00    +0.000 N
ATOM     16  C9  UNL     1      10.017   8.595  25.662  0.00  0.00    +0.000 A
ATOM     17  N3  UNL     1      10.199   8.935  24.378  0.00  0.00    +0.000 NA
ATOM     18  C10 UNL     1       9.092   9.032  23.619  0.00  0.00    +0.000 A
ATOM     19  C11 UNL     1       7.824   8.796  24.092  0.00  0.00    +0.000 A
ATOM     20  C12 UNL     1       7.737   8.442  25.421  0.00  0.00    +0.000 A
ATOM     21  N4  UNL     1       8.825   8.334  26.209  0.00  0.00    +0.000 NA
ATOM     22  C13 UNL     1       6.405   8.160  26.047  0.00  0.00    +0.000 C
ATOM     23  H   UNL     1      12.030   8.651  25.910  0.00  0.00    +0.000 HD
ENDBRANCH   1  14
TORSDOF 1
