ROOT
ATOM      1  C2  UNL     1      12.158   7.584  27.915  0.00  0.00    +0.000 C
ATOM      2  N1  UNL     1      12.711   7.510  26.550  0.00  0.00    +0.000 N
ATOM      3  C3  UNL     1      13.539   6.462  26.244  0.00  0.00    +0.000 C
ATOM      4  O2  UNL     1      14.470   6.030  26.878  0.00  0.00    +0.000 OA
ATOM      5  C4  UNL     1      12.739   6.098  24.986  0.00  0.00    +0.000 C
ATOM      6  C5  UNL     1      11.772   7.197  25.428  0.00  0.00    +0.000 C
ATOM      7  S1  UNL     1      10.280   6.776  26.334  0.00  0.00    +0.000 S
ATOM      8  O3  UNL     1       9.117   7.282  25.635  0.00  0.00    +0.000 OA
ATOM      9  O4  UNL     1      10.340   5.389  26.758  0.00  0.00    +0.000 OA
ATOM     10  C6  UNL     1      10.646   7.844  27.779  0.00  0.00    +0.000 C
ATOM     11  C7  UNL     1       9.841   7.368  28.990  0.00  0.00    +0.000 C
ATOM     12  C8  UNL     1      10.285   9.297  27.434  0.00  0.00    +0.000 C
ENDROOT
BRANCH   1  14
ATOM     13  O1  UNL     1      13.127   8.315  30.003  0.00  0.00    +0.000 OA
ATOM     14  C1  UNL     1      12.937   8.563  28.816  0.00  0.00    +0.000 C
ATOM     15  N2  UNL     1      13.497   9.622  28.125  0.00  0.00    +0.000 N
ATOM     16  H   UNL     1      13.337   9.637  27.154  0.00  0.00    +0.000 HD
BRANCH  15  17
ATOM     17  C9  UNL     1      14.272  10.683  28.642  0.00  0.00    +0.000 A
ATOM     18  C10 UNL     1      13.750  11.785  29.319  0.00  0.00    +0.000 A
ATOM     19  C11 UNL     1      14.602  12.792  29.793  0.00  0.00    +0.000 A
ATOM     20  C12 UNL     1      15.980  12.707  29.593  0.00  0.00    +0.000 A
ATOM     21  C13 UNL     1      16.512  11.614  28.915  0.00  0.00    +0.000 A
ATOM     22  C14 UNL     1      15.659  10.618  28.446  0.00  0.00    +0.000 A
ATOM     23  F1  UNL     1      16.186   9.576  27.785  0.00  0.00    +0.000 F
ENDBRANCH  15  17
ENDBRANCH   1  14
TORSDOF 2
