ROOT
ATOM      1  C2  UNL     1      17.293   9.080  27.473  0.00  0.00    +0.000 C
ATOM      2  N1  UNL     1      17.988   7.906  26.910  0.00  0.00    +0.000 N
ATOM      3  C3  UNL     1      18.424   7.972  25.613  0.00  0.00    +0.000 C
ATOM      4  O2  UNL     1      17.825   8.353  24.637  0.00  0.00    +0.000 OA
ATOM      5  C4  UNL     1      19.845   7.531  25.990  0.00  0.00    +0.000 C
ATOM      6  C5  UNL     1      19.349   7.577  27.436  0.00  0.00    +0.000 C
ATOM      7  S1  UNL     1      19.682   9.016  28.459  0.00  0.00    +0.000 S
ATOM      8  O3  UNL     1      20.384   8.615  29.661  0.00  0.00    +0.000 OA
ATOM      9  O4  UNL     1      20.190  10.096  27.632  0.00  0.00    +0.000 OA
ATOM     10  C6  UNL     1      17.923   9.361  28.851  0.00  0.00    +0.000 C
ATOM     11  C7  UNL     1      17.769  10.815  29.300  0.00  0.00    +0.000 C
ATOM     12  C8  UNL     1      17.460   8.405  29.964  0.00  0.00    +0.000 C
ENDROOT
BRANCH   1  14
ATOM     13  O1  UNL     1      15.034   9.876  27.721  0.00  0.00    +0.000 OA
ATOM     14  C1  UNL     1      15.762   8.928  27.440  0.00  0.00    +0.000 C
ATOM     15  N2  UNL     1      15.352   7.717  26.936  0.00  0.00    +0.000 N
ATOM     16  C9  UNL     1      14.043   7.289  26.793  0.00  0.00    +0.000 A
ATOM     17  N3  UNL     1      13.918   6.083  26.219  0.00  0.00    +0.000 NA
ATOM     18  C10 UNL     1      12.665   5.619  26.063  0.00  0.00    +0.000 A
ATOM     19  C11 UNL     1      11.545   6.306  26.462  0.00  0.00    +0.000 A
ATOM     20  C12 UNL     1      11.773   7.531  27.051  0.00  0.00    +0.000 A
ATOM     21  N4  UNL     1      13.015   8.026  27.225  0.00  0.00    +0.000 NA
ATOM     22  C13 UNL     1      10.627   8.371  27.528  0.00  0.00    +0.000 C
ATOM     23  H   UNL     1      16.058   7.094  26.648  0.00  0.00    +0.000 HD
ENDBRANCH   1  14
TORSDOF 1
