ROOT
ATOM      1  C2  UNL     1      15.085   7.745  28.515  0.00  0.00    +0.000 C
ATOM      2  N1  UNL     1      14.460   8.901  29.165  0.00  0.00    +0.000 N
ATOM      3  C3  UNL     1      14.024   8.765  30.457  0.00  0.00    +0.000 C
ATOM      4  O2  UNL     1      13.482   7.837  31.006  0.00  0.00    +0.000 OA
ATOM      5  C4  UNL     1      14.660  10.098  30.872  0.00  0.00    +0.000 C
ATOM      6  C5  UNL     1      15.299  10.089  29.482  0.00  0.00    +0.000 C
ATOM      7  S1  UNL     1      16.942   9.399  29.255  0.00  0.00    +0.000 S
ATOM      8  O3  UNL     1      17.830  10.390  28.681  0.00  0.00    +0.000 OA
ATOM      9  O4  UNL     1      17.338   8.657  30.439  0.00  0.00    +0.000 OA
ATOM     10  C6  UNL     1      16.455   8.194  27.969  0.00  0.00    +0.000 C
ATOM     11  C7  UNL     1      17.466   7.047  27.909  0.00  0.00    +0.000 C
ATOM     12  C8  UNL     1      16.391   8.900  26.606  0.00  0.00    +0.000 C
ENDROOT
BRANCH   1  14
ATOM     13  O1  UNL     1      14.468   6.153  26.818  0.00  0.00    +0.000 OA
ATOM     14  C1  UNL     1      14.158   7.168  27.435  0.00  0.00    +0.000 C
ATOM     15  N2  UNL     1      12.972   7.869  27.326  0.00  0.00    +0.000 N
ATOM     16  C9  UNL     1      11.881   7.500  26.522  0.00  0.00    +0.000 A
ATOM     17  N3  UNL     1      11.850   6.313  25.890  0.00  0.00    +0.000 NA
ATOM     18  C10 UNL     1      10.760   6.028  25.140  0.00  0.00    +0.000 A
ATOM     19  C11 UNL     1       9.676   6.879  24.998  0.00  0.00    +0.000 A
ATOM     20  C12 UNL     1       9.708   8.097  25.666  0.00  0.00    +0.000 A
ATOM     21  C13 UNL     1      10.822   8.406  26.435  0.00  0.00    +0.000 A
ATOM     22  F1  UNL     1      10.872   9.574  27.095  0.00  0.00    +0.000 F
ATOM     23  H   UNL     1      12.885   8.695  27.855  0.00  0.00    +0.000 HD
ENDBRANCH   1  14
TORSDOF 1
