REMARK  Name = top10_adme_compounds/adme_molecule3.pdb
REMARK  4 active torsions:
REMARK  status: ('A' for Active; 'I' for Inactive)
REMARK    1  A    between atoms: C1_2  and  C2_3
REMARK    2  A    between atoms: C6_12  and  C7_13
REMARK    3  A    between atoms: C6_12  and  C8_14
REMARK    4  A    between atoms: C11_19  and  C12_21
REMARK                            x       y       z     vdW  Elec       q    Type
REMARK                         _______ _______ _______ _____ _____    ______ ____
ROOT
ATOM      1  C2  UNL     1      -0.820  -0.228   0.369  0.00  0.00    +0.000 C 
ATOM      2  N1  UNL     1      -1.475   0.617   1.373  0.00  0.00    +0.000 N 
ATOM      3  C3  UNL     1      -0.991   1.884   1.553  0.00  0.00    +0.000 C 
ATOM      4  O2  UNL     1       0.156   2.267   1.558  0.00  0.00    +0.000 OA
ATOM      5  C4  UNL     1      -2.400   2.495   1.524  0.00  0.00    +0.000 C 
ATOM      6  C5  UNL     1      -2.864   1.095   1.110  0.00  0.00    +0.000 C 
ATOM      7  S1  UNL     1      -3.029   0.684  -0.633  0.00  0.00    +0.000 S 
ATOM      8  O3  UNL     1      -4.383   0.256  -0.921  0.00  0.00    +0.000 OA
ATOM      9  O4  UNL     1      -2.393   1.711  -1.439  0.00  0.00    +0.000 OA
ATOM     10  C6  UNL     1      -1.917  -0.770  -0.575  0.00  0.00    +0.000 C 
ATOM     11  C7  UNL     1      -1.370  -1.078  -1.971  0.00  0.00    +0.000 C 
ATOM     12  C8  UNL     1      -2.697  -1.983  -0.048  0.00  0.00    +0.000 C 
ENDROOT
BRANCH   1  14
ATOM     13  O1  UNL     1      -0.531  -2.058   1.913  0.00  0.00    +0.000 OA
ATOM     14  C1  UNL     1      -0.003  -1.313   1.081  0.00  0.00    +0.000 C 
ATOM     15  N2  UNL     1       1.291  -1.540   0.727  0.00  0.00    +0.000 N 
ATOM     16  C9  UNL     1       2.237  -0.660   0.273  0.00  0.00    +0.000 A 
ATOM     17  N3  UNL     1       2.205   0.709   0.359  0.00  0.00    +0.000 N 
ATOM     18  C10 UNL     1       3.370   1.190  -0.176  0.00  0.00    +0.000 A 
ATOM     19  C11 UNL     1       4.095   0.075  -0.527  0.00  0.00    +0.000 A 
ATOM     20  N4  UNL     1       3.389  -1.062  -0.213  0.00  0.00    +0.000 NA
ATOM     21  C12 UNL     1       5.443  -0.015  -1.128  0.00  0.00    +0.000 C 
ATOM     22  H   UNL     1       1.591  -2.474   0.809  0.00  0.00    +0.000 HD
ATOM     23  H   UNL     1       1.474   1.249   0.738  0.00  0.00    +0.000 HD
ENDBRANCH   1  14
TORSDOF 1
