REMARK  Name = top10_adme_compounds/adme_molecule6.pdb
REMARK  4 active torsions:
REMARK  status: ('A' for Active; 'I' for Inactive)
REMARK    1  A    between atoms: C1_2  and  C2_3
REMARK    2  A    between atoms: C6_12  and  C7_13
REMARK    3  A    between atoms: C6_12  and  C8_14
REMARK    4  A    between atoms: N2_15  and  C9_16
REMARK                            x       y       z     vdW  Elec       q    Type
REMARK                         _______ _______ _______ _____ _____    ______ ____
ROOT
ATOM      1  C2  UNL     1      -0.983   0.052  -0.002  0.00  0.00    +0.000 C 
ATOM      2  N1  UNL     1      -0.859  -1.217  -0.744  0.00  0.00    +0.000 N 
ATOM      3  C3  UNL     1      -0.933  -2.389  -0.042  0.00  0.00    +0.000 C 
ATOM      4  O2  UNL     1      -0.343  -2.688   0.969  0.00  0.00    +0.000 OA
ATOM      5  C4  UNL     1      -2.035  -2.953  -0.951  0.00  0.00    +0.000 C 
ATOM      6  C5  UNL     1      -1.977  -1.601  -1.663  0.00  0.00    +0.000 C 
ATOM      7  S1  UNL     1      -3.186  -0.325  -1.288  0.00  0.00    +0.000 S 
ATOM      8  O3  UNL     1      -3.947  -0.707  -0.113  0.00  0.00    +0.000 OA
ATOM      9  O4  UNL     1      -3.859   0.093  -2.501  0.00  0.00    +0.000 OA
ATOM     10  C6  UNL     1      -1.955   0.943  -0.793  0.00  0.00    +0.000 C 
ATOM     11  C7  UNL     1      -2.629   2.012   0.069  0.00  0.00    +0.000 C 
ATOM     12  C8  UNL     1      -1.347   1.576  -2.055  0.00  0.00    +0.000 C 
ENDROOT
BRANCH   1  14
ATOM     13  O1  UNL     1       0.592   1.865   0.283  0.00  0.00    +0.000 OA
ATOM     14  C1  UNL     1       0.391   0.657   0.347  0.00  0.00    +0.000 C 
ATOM     15  N2  UNL     1       1.277  -0.273   0.868  0.00  0.00    +0.000 N 
ATOM     16  H   UNL     1       0.943  -1.196   0.944  0.00  0.00    +0.000 HD
BRANCH  15  17
ATOM     17  C9  UNL     1       2.601  -0.052   1.302  0.00  0.00    +0.000 A 
ATOM     18  C10 UNL     1       3.305  -1.126   1.858  0.00  0.00    +0.000 A 
ATOM     19  N3  UNL     1       4.583  -1.064   2.307  0.00  0.00    +0.000 NA
ATOM     20  C11 UNL     1       5.193   0.138   2.198  0.00  0.00    +0.000 A 
ATOM     21  C12 UNL     1       4.581   1.256   1.662  0.00  0.00    +0.000 A 
ATOM     22  C13 UNL     1       3.271   1.166   1.206  0.00  0.00    +0.000 A 
ATOM     23  F1  UNL     1       5.244   2.417   1.578  0.00  0.00    +0.000 F 
ENDBRANCH  15  17
ENDBRANCH   1  14
TORSDOF 2
