REMARK  Name = top10_adme_compounds/adme_molecule7.pdb
REMARK  6 active torsions:
REMARK  status: ('A' for Active; 'I' for Inactive)
REMARK    1  A    between atoms: C1_2  and  C2_3
REMARK    2  A    between atoms: C5_6  and  O1_9
REMARK    3  A    between atoms: O1_9  and  C7_10
REMARK    4  A    between atoms: C7_10  and  C8_12
REMARK    5  A    between atoms: C12_21  and  C13_22
REMARK    6  A    between atoms: C12_21  and  C14_23
REMARK                            x       y       z     vdW  Elec       q    Type
REMARK                         _______ _______ _______ _____ _____    ______ ____
ROOT
ATOM      1  C8  UNL     1      -1.055   0.274  -0.466  0.00  0.00    +0.000 C 
ATOM      2  N3  UNL     1      -2.029   1.258   0.004  0.00  0.00    +0.000 N 
ATOM      3  C9  UNL     1      -3.167   1.535  -0.696  0.00  0.00    +0.000 C 
ATOM      4  O3  UNL     1      -3.352   1.598  -1.886  0.00  0.00    +0.000 OA
ATOM      5  C10 UNL     1      -4.016   1.531   0.584  0.00  0.00    +0.000 C 
ATOM      6  C11 UNL     1      -2.761   0.970   1.265  0.00  0.00    +0.000 C 
ATOM      7  S1  UNL     1      -2.565  -0.818   1.410  0.00  0.00    +0.000 S 
ATOM      8  O4  UNL     1      -1.727  -1.118   2.555  0.00  0.00    +0.000 OA
ATOM      9  O5  UNL     1      -3.857  -1.464   1.274  0.00  0.00    +0.000 OA
ATOM     10  C12 UNL     1      -1.590  -1.125  -0.108  0.00  0.00    +0.000 C 
ATOM     11  C13 UNL     1      -0.504  -2.179   0.154  0.00  0.00    +0.000 C 
ATOM     12  C14 UNL     1      -2.503  -1.670  -1.223  0.00  0.00    +0.000 C 
ENDROOT
BRANCH   1  13
ATOM     13  C7  UNL     1       0.273   0.614   0.214  0.00  0.00    +0.000 C 
ATOM     14  O2  UNL     1       0.384   1.113   1.326  0.00  0.00    +0.000 OA
BRANCH  13  15
ATOM     15  O1  UNL     1       1.320   0.231  -0.621  0.00  0.00    +0.000 OA
BRANCH  15  19
ATOM     16  C2  UNL     1       5.157   0.948   0.711  0.00  0.00    +0.000 A 
ATOM     17  C3  UNL     1       4.792  -0.354   0.381  0.00  0.00    +0.000 A 
ATOM     18  C4  UNL     1       3.490  -0.591  -0.057  0.00  0.00    +0.000 A 
ATOM     19  C5  UNL     1       2.603   0.477  -0.130  0.00  0.00    +0.000 A 
ATOM     20  C6  UNL     1       3.050   1.749   0.205  0.00  0.00    +0.000 A 
ATOM     21  N2  UNL     1       4.312   2.007   0.623  0.00  0.00    +0.000 NA
BRANCH  16  23
ATOM     22  N1  UNL     1       7.581   1.431   1.517  0.00  0.00    +0.000 NA
ATOM     23  C1  UNL     1       6.491   1.241   1.162  0.00  0.00    +0.000 C 
ENDBRANCH  16  23
ENDBRANCH  15  19
ENDBRANCH  13  15
ENDBRANCH   1  13
TORSDOF 4
