REMARK  Name = top10_adme_compounds/adme_molecule4.pdb
REMARK  4 active torsions:
REMARK  status: ('A' for Active; 'I' for Inactive)
REMARK    1  A    between atoms: C1_2  and  C2_3
REMARK    2  A    between atoms: C6_12  and  C7_13
REMARK    3  A    between atoms: C6_12  and  C8_14
REMARK    4  A    between atoms: C12_20  and  C13_22
REMARK                            x       y       z     vdW  Elec       q    Type
REMARK                         _______ _______ _______ _____ _____    ______ ____
ROOT
ATOM      1  C2  UNL     1      -1.353   0.021  -0.180  0.00  0.00    +0.000 C 
ATOM      2  N1  UNL     1      -1.483   1.411   0.298  0.00  0.00    +0.000 N 
ATOM      3  C3  UNL     1      -1.549   2.413  -0.634  0.00  0.00    +0.000 C 
ATOM      4  O2  UNL     1      -0.850   2.586  -1.603  0.00  0.00    +0.000 OA
ATOM      5  C4  UNL     1      -2.818   3.011  -0.012  0.00  0.00    +0.000 C 
ATOM      6  C5  UNL     1      -2.772   1.815   0.941  0.00  0.00    +0.000 C 
ATOM      7  S1  UNL     1      -3.786   0.367   0.621  0.00  0.00    +0.000 S 
ATOM      8  O3  UNL     1      -4.635   0.097   1.764  0.00  0.00    +0.000 OA
ATOM      9  O4  UNL     1      -4.350   0.450  -0.714  0.00  0.00    +0.000 OA
ATOM     10  C6  UNL     1      -2.388  -0.821   0.591  0.00  0.00    +0.000 C 
ATOM     11  C7  UNL     1      -2.806  -2.091  -0.152  0.00  0.00    +0.000 C 
ATOM     12  C8  UNL     1      -1.981  -1.154   2.036  0.00  0.00    +0.000 C 
ENDROOT
BRANCH   1  14
ATOM     13  O1  UNL     1       0.352  -1.648   0.144  0.00  0.00    +0.000 OA
ATOM     14  C1  UNL     1       0.101  -0.480  -0.140  0.00  0.00    +0.000 C 
ATOM     15  N2  UNL     1       1.005   0.453  -0.589  0.00  0.00    +0.000 N 
ATOM     16  C9  UNL     1       2.379   0.297  -0.660  0.00  0.00    +0.000 A 
ATOM     17  N3  UNL     1       3.025   1.345  -1.191  0.00  0.00    +0.000 NA
ATOM     18  C10 UNL     1       4.364   1.245  -1.277  0.00  0.00    +0.000 A 
ATOM     19  C11 UNL     1       5.073   0.149  -0.849  0.00  0.00    +0.000 A 
ATOM     20  C12 UNL     1       4.324  -0.874  -0.308  0.00  0.00    +0.000 A 
ATOM     21  N4  UNL     1       2.982  -0.806  -0.205  0.00  0.00    +0.000 NA
ATOM     22  C13 UNL     1       4.989  -2.120   0.194  0.00  0.00    +0.000 C 
ATOM     23  H   UNL     1       0.640   1.317  -0.889  0.00  0.00    +0.000 HD
ENDBRANCH   1  14
TORSDOF 1
