REMARK  Name = top10_adme_compounds/adme_molecule5.pdb
REMARK  3 active torsions:
REMARK  status: ('A' for Active; 'I' for Inactive)
REMARK    1  A    between atoms: C1_2  and  C2_3
REMARK    2  A    between atoms: C6_12  and  C7_13
REMARK    3  A    between atoms: C6_12  and  C8_14
REMARK                            x       y       z     vdW  Elec       q    Type
REMARK                         _______ _______ _______ _____ _____    ______ ____
ROOT
ATOM      1  C2  UNL     1      -0.568   0.309  -0.693  0.00  0.00    +0.000 C 
ATOM      2  N1  UNL     1      -1.151   1.643  -0.780  0.00  0.00    +0.000 N 
ATOM      3  C3  UNL     1      -2.056   1.975  -1.744  0.00  0.00    +0.000 C 
ATOM      4  O2  UNL     1      -2.127   1.631  -2.898  0.00  0.00    +0.000 OA
ATOM      5  C4  UNL     1      -2.925   2.740  -0.733  0.00  0.00    +0.000 C 
ATOM      6  C5  UNL     1      -2.022   2.101   0.332  0.00  0.00    +0.000 C 
ATOM      7  S1  UNL     1      -2.524   0.537   1.080  0.00  0.00    +0.000 S 
ATOM      8  O3  UNL     1      -3.946   0.332   0.869  0.00  0.00    +0.000 OA
ATOM      9  O4  UNL     1      -1.980   0.446   2.421  0.00  0.00    +0.000 OA
ATOM     10  C6  UNL     1      -1.597  -0.613  -0.006  0.00  0.00    +0.000 C 
ATOM     11  C7  UNL     1      -2.549  -1.243  -1.042  0.00  0.00    +0.000 C 
ATOM     12  C8  UNL     1      -0.994  -1.757   0.821  0.00  0.00    +0.000 C 
ENDROOT
BRANCH   1  14
ATOM     13  O1  UNL     1       0.877   1.271   0.996  0.00  0.00    +0.000 OA
ATOM     14  C1  UNL     1       0.751   0.449   0.093  0.00  0.00    +0.000 C 
ATOM     15  N2  UNL     1       1.711  -0.461  -0.293  0.00  0.00    +0.000 N 
ATOM     16  C9  UNL     1       2.989  -0.642   0.245  0.00  0.00    +0.000 A 
ATOM     17  N3  UNL     1       3.693  -1.595  -0.391  0.00  0.00    +0.000 NA
ATOM     18  C10 UNL     1       4.931  -1.831   0.068  0.00  0.00    +0.000 A 
ATOM     19  N4  UNL     1       5.517  -1.210   1.091  0.00  0.00    +0.000 NA
ATOM     20  C11 UNL     1       4.766  -0.273   1.688  0.00  0.00    +0.000 A 
ATOM     21  C12 UNL     1       3.489   0.060   1.312  0.00  0.00    +0.000 A 
ATOM     22  F1  UNL     1       5.312   0.378   2.725  0.00  0.00    +0.000 F 
ATOM     23  H   UNL     1       1.467  -1.056  -1.038  0.00  0.00    +0.000 HD
ENDBRANCH   1  14
TORSDOF 1
