REMARK  Name = top10_adme_compounds/adme_molecule10.pdb
REMARK  4 active torsions:
REMARK  status: ('A' for Active; 'I' for Inactive)
REMARK    1  A    between atoms: C1_2  and  C2_3
REMARK    2  A    between atoms: C6_12  and  C7_13
REMARK    3  A    between atoms: C6_12  and  C8_14
REMARK    4  A    between atoms: N2_15  and  C9_16
REMARK                            x       y       z     vdW  Elec       q    Type
REMARK                         _______ _______ _______ _____ _____    ______ ____
ROOT
ATOM      1  C2  UNL     1      -1.004  -0.160   0.465  0.00  0.00    +0.000 C 
ATOM      2  N1  UNL     1      -1.465  -0.305  -0.929  0.00  0.00    +0.000 N 
ATOM      3  C3  UNL     1      -1.554  -1.568  -1.451  0.00  0.00    +0.000 C 
ATOM      4  O2  UNL     1      -0.747  -2.463  -1.396  0.00  0.00    +0.000 OA
ATOM      5  C4  UNL     1      -2.995  -1.349  -1.932  0.00  0.00    +0.000 C 
ATOM      6  C5  UNL     1      -2.897   0.006  -1.231  0.00  0.00    +0.000 C 
ATOM      7  S1  UNL     1      -3.561   0.216   0.424  0.00  0.00    +0.000 S 
ATOM      8  O3  UNL     1      -4.530   1.293   0.436  0.00  0.00    +0.000 OA
ATOM      9  O4  UNL     1      -3.892  -1.080   0.987  0.00  0.00    +0.000 OA
ATOM     10  C6  UNL     1      -1.988   0.791   1.172  0.00  0.00    +0.000 C 
ATOM     11  C7  UNL     1      -2.034   0.593   2.688  0.00  0.00    +0.000 C 
ATOM     12  C8  UNL     1      -1.784   2.276   0.832  0.00  0.00    +0.000 C 
ENDROOT
BRANCH   1  14
ATOM     13  O1  UNL     1       0.899   0.958   1.446  0.00  0.00    +0.000 OA
ATOM     14  C1  UNL     1       0.488   0.216   0.558  0.00  0.00    +0.000 C 
ATOM     15  N2  UNL     1       1.287  -0.471  -0.338  0.00  0.00    +0.000 N 
ATOM     16  H   UNL     1       0.825  -1.108  -0.929  0.00  0.00    +0.000 HD
BRANCH  15  17
ATOM     17  C9  UNL     1       2.685  -0.370  -0.508  0.00  0.00    +0.000 A 
ATOM     18  C10 UNL     1       3.506   0.506   0.202  0.00  0.00    +0.000 A 
ATOM     19  C11 UNL     1       4.886   0.535  -0.041  0.00  0.00    +0.000 A 
ATOM     20  C12 UNL     1       5.456  -0.307  -0.996  0.00  0.00    +0.000 A 
ATOM     21  C13 UNL     1       4.646  -1.182  -1.714  0.00  0.00    +0.000 A 
ATOM     22  C14 UNL     1       3.276  -1.205  -1.467  0.00  0.00    +0.000 A 
ATOM     23  F1  UNL     1       2.507  -2.047  -2.175  0.00  0.00    +0.000 F 
ENDBRANCH  15  17
ENDBRANCH   1  14
TORSDOF 2
