REMARK  Name = top10_adme_compounds/adme_molecule2.pdb
REMARK  4 active torsions:
REMARK  status: ('A' for Active; 'I' for Inactive)
REMARK    1  A    between atoms: C1_2  and  C2_3
REMARK    2  A    between atoms: C6_12  and  C7_13
REMARK    3  A    between atoms: C6_12  and  C8_14
REMARK    4  A    between atoms: C12_21  and  C13_22
REMARK                            x       y       z     vdW  Elec       q    Type
REMARK                         _______ _______ _______ _____ _____    ______ ____
ROOT
ATOM      1  C2  UNL     1      -1.087  -0.193  -0.284  0.00  0.00    +0.000 C 
ATOM      2  N1  UNL     1      -1.191   0.092   1.160  0.00  0.00    +0.000 N 
ATOM      3  C3  UNL     1      -1.225   1.398   1.565  0.00  0.00    +0.000 C 
ATOM      4  O2  UNL     1      -0.491   2.299   1.234  0.00  0.00    +0.000 OA
ATOM      5  C4  UNL     1      -2.503   1.190   2.389  0.00  0.00    +0.000 C 
ATOM      6  C5  UNL     1      -2.478  -0.241   1.848  0.00  0.00    +0.000 C 
ATOM      7  S1  UNL     1      -3.508  -0.698   0.448  0.00  0.00    +0.000 S 
ATOM      8  O3  UNL     1      -4.361  -1.814   0.806  0.00  0.00    +0.000 OA
ATOM      9  O4  UNL     1      -4.069   0.498  -0.152  0.00  0.00    +0.000 OA
ATOM     10  C6  UNL     1      -2.125  -1.284  -0.604  0.00  0.00    +0.000 C 
ATOM     11  C7  UNL     1      -2.558  -1.292  -2.071  0.00  0.00    +0.000 C 
ATOM     12  C8  UNL     1      -1.714  -2.697  -0.158  0.00  0.00    +0.000 C 
ENDROOT
BRANCH   1  14
ATOM     13  O1  UNL     1       0.611  -1.321  -1.567  0.00  0.00    +0.000 OA
ATOM     14  C1  UNL     1       0.364  -0.465  -0.724  0.00  0.00    +0.000 C 
ATOM     15  N2  UNL     1       1.262   0.446  -0.192  0.00  0.00    +0.000 N 
ATOM     16  C9  UNL     1       2.653   0.434  -0.390  0.00  0.00    +0.000 A 
ATOM     17  N3  UNL     1       3.216  -0.592  -1.062  0.00  0.00    +0.000 NA
ATOM     18  C10 UNL     1       4.558  -0.562  -1.215  0.00  0.00    +0.000 A 
ATOM     19  C11 UNL     1       5.336   0.456  -0.706  0.00  0.00    +0.000 A 
ATOM     20  N4  UNL     1       4.804   1.489  -0.021  0.00  0.00    +0.000 NA
ATOM     21  C12 UNL     1       3.450   1.470   0.132  0.00  0.00    +0.000 A 
ATOM     22  C13 UNL     1       2.871   2.627   0.891  0.00  0.00    +0.000 C 
ATOM     23  H   UNL     1       0.894   1.163   0.373  0.00  0.00    +0.000 HD
ENDBRANCH   1  14
TORSDOF 1
