REMARK  Name = top10_adme_compounds/adme_molecule1.pdb
REMARK  4 active torsions:
REMARK  status: ('A' for Active; 'I' for Inactive)
REMARK    1  A    between atoms: C1_2  and  C2_3
REMARK    2  A    between atoms: C6_12  and  C7_13
REMARK    3  A    between atoms: C6_12  and  C8_14
REMARK    4  A    between atoms: C13_21  and  O5_22
REMARK                            x       y       z     vdW  Elec       q    Type
REMARK                         _______ _______ _______ _____ _____    ______ ____
ROOT
ATOM      1  O1  UNL     1       0.656  -1.001  -1.821  0.00  0.00    +0.000 OA
ATOM      2  C1  UNL     1       0.406  -0.315  -0.836  0.00  0.00    +0.000 C 
ATOM      3  N2  UNL     1       1.301   0.451  -0.114  0.00  0.00    +0.000 N 
ATOM      4  C9  UNL     1       2.685   0.528  -0.299  0.00  0.00    +0.000 A 
ATOM      5  N3  UNL     1       3.290  -0.269  -1.198  0.00  0.00    +0.000 NA
ATOM      6  C10 UNL     1       4.636  -0.195  -1.298  0.00  0.00    +0.000 A 
ATOM      7  C11 UNL     1       5.423   0.646  -0.529  0.00  0.00    +0.000 A 
ATOM      8  C12 UNL     1       4.790   1.472   0.391  0.00  0.00    +0.000 A 
ATOM      9  C13 UNL     1       3.405   1.426   0.500  0.00  0.00    +0.000 A 
ATOM     10  H   UNL     1       0.923   1.002   0.609  0.00  0.00    +0.000 HD
ENDROOT
BRANCH   2  11
ATOM     11  C2  UNL     1      -1.049  -0.062  -0.395  0.00  0.00    +0.000 C 
ATOM     12  N1  UNL     1      -1.188   0.054   1.072  0.00  0.00    +0.000 N 
ATOM     13  C3  UNL     1      -1.163   1.300   1.637  0.00  0.00    +0.000 C 
ATOM     14  O2  UNL     1      -0.337   2.168   1.469  0.00  0.00    +0.000 OA
ATOM     15  C4  UNL     1      -2.505   1.086   2.353  0.00  0.00    +0.000 C 
ATOM     16  C5  UNL     1      -2.516  -0.285   1.673  0.00  0.00    +0.000 C 
ATOM     17  S1  UNL     1      -3.506  -0.561   0.199  0.00  0.00    +0.000 S 
ATOM     18  O3  UNL     1      -4.015   0.709  -0.286  0.00  0.00    +0.000 OA
ATOM     19  O4  UNL     1      -4.399  -1.683   0.405  0.00  0.00    +0.000 OA
ATOM     20  C6  UNL     1      -2.105  -1.072  -0.870  0.00  0.00    +0.000 C 
ATOM     21  C7  UNL     1      -1.745  -2.536  -0.576  0.00  0.00    +0.000 C 
ATOM     22  C8  UNL     1      -2.490  -0.901  -2.341  0.00  0.00    +0.000 C 
ENDBRANCH   2  11
BRANCH   9  23
ATOM     23  O5  UNL     1       2.833   2.284   1.400  0.00  0.00    +0.000 OA
ATOM     24  H   UNL     1       1.903   2.293   1.512  0.00  0.00    +0.000 HD
ENDBRANCH   9  23
TORSDOF 2
