REMARK  Name = top10_adme_compounds/adme_molecule9.pdb
REMARK  5 active torsions:
REMARK  status: ('A' for Active; 'I' for Inactive)
REMARK    1  A    between atoms: C1_2  and  C2_3
REMARK    2  A    between atoms: C6_12  and  C7_13
REMARK    3  A    between atoms: C6_12  and  C8_14
REMARK    4  A    between atoms: N2_15  and  C9_16
REMARK    5  A    between atoms: C13_20  and  C14_22
REMARK                            x       y       z     vdW  Elec       q    Type
REMARK                         _______ _______ _______ _____ _____    ______ ____
ROOT
ATOM      1  C2  UNL     1      -1.086   0.478   0.456  0.00  0.00    +0.000 C 
ATOM      2  N1  UNL     1      -2.165   1.135   1.198  0.00  0.00    +0.000 N 
ATOM      3  C3  UNL     1      -2.853   2.201   0.696  0.00  0.00    +0.000 C 
ATOM      4  O2  UNL     1      -2.482   3.111  -0.003  0.00  0.00    +0.000 OA
ATOM      5  C4  UNL     1      -4.185   1.648   1.226  0.00  0.00    +0.000 C 
ATOM      6  C5  UNL     1      -3.393   0.360   1.498  0.00  0.00    +0.000 C 
ATOM      7  S1  UNL     1      -3.342  -0.915   0.225  0.00  0.00    +0.000 S 
ATOM      8  O3  UNL     1      -3.205  -2.217   0.849  0.00  0.00    +0.000 OA
ATOM      9  O4  UNL     1      -4.415  -0.692  -0.727  0.00  0.00    +0.000 OA
ATOM     10  C6  UNL     1      -1.745  -0.468  -0.573  0.00  0.00    +0.000 C 
ATOM     11  C7  UNL     1      -0.960  -1.747  -0.899  0.00  0.00    +0.000 C 
ATOM     12  C8  UNL     1      -2.017   0.263  -1.902  0.00  0.00    +0.000 C 
ENDROOT
BRANCH   1  14
ATOM     13  O1  UNL     1      -0.752  -0.717   2.512  0.00  0.00    +0.000 OA
ATOM     14  C1  UNL     1      -0.225  -0.249   1.494  0.00  0.00    +0.000 C 
ATOM     15  N2  UNL     1       1.105  -0.460   1.345  0.00  0.00    +0.000 N 
ATOM     16  H   UNL     1       1.466  -0.982   2.097  0.00  0.00    +0.000 HD
BRANCH  15  17
ATOM     17  C9  UNL     1       2.105  -0.147   0.429  0.00  0.00    +0.000 A 
ATOM     18  C10 UNL     1       1.954   0.523  -0.771  0.00  0.00    +0.000 A 
ATOM     19  C11 UNL     1       3.080   0.747  -1.565  0.00  0.00    +0.000 A 
ATOM     20  C12 UNL     1       4.322   0.296  -1.143  0.00  0.00    +0.000 A 
ATOM     21  C13 UNL     1       4.398  -0.374   0.067  0.00  0.00    +0.000 A 
ATOM     22  N3  UNL     1       3.310  -0.595   0.842  0.00  0.00    +0.000 NA
ATOM     23  C14 UNL     1       5.716  -0.884   0.568  0.00  0.00    +0.000 C 
ENDBRANCH  15  17
ENDBRANCH   1  14
TORSDOF 2
