REMARK  Name = top10_adme_compounds/adme_molecule8.pdb
REMARK  3 active torsions:
REMARK  status: ('A' for Active; 'I' for Inactive)
REMARK    1  A    between atoms: C1_2  and  C2_3
REMARK    2  A    between atoms: C6_12  and  C7_13
REMARK    3  A    between atoms: C6_12  and  C8_14
REMARK                            x       y       z     vdW  Elec       q    Type
REMARK                         _______ _______ _______ _____ _____    ______ ____
ROOT
ATOM      1  C2  UNL     1      -0.878   0.576  -0.157  0.00  0.00    +0.000 C 
ATOM      2  N1  UNL     1      -1.494   1.840   0.258  0.00  0.00    +0.000 N 
ATOM      3  C3  UNL     1      -1.796   2.765  -0.707  0.00  0.00    +0.000 C 
ATOM      4  O2  UNL     1      -1.188   3.088  -1.698  0.00  0.00    +0.000 OA
ATOM      5  C4  UNL     1      -3.191   3.010  -0.116  0.00  0.00    +0.000 C 
ATOM      6  C5  UNL     1      -2.882   1.822   0.796  0.00  0.00    +0.000 C 
ATOM      7  S1  UNL     1      -3.396   0.168   0.320  0.00  0.00    +0.000 S 
ATOM      8  O3  UNL     1      -4.246  -0.410   1.342  0.00  0.00    +0.000 OA
ATOM      9  O4  UNL     1      -3.811   0.157  -1.072  0.00  0.00    +0.000 OA
ATOM     10  C6  UNL     1      -1.728  -0.574   0.419  0.00  0.00    +0.000 C 
ATOM     11  C7  UNL     1      -1.660  -1.839  -0.440  0.00  0.00    +0.000 C 
ATOM     12  C8  UNL     1      -1.410  -0.923   1.881  0.00  0.00    +0.000 C 
ENDROOT
BRANCH   1  14
ATOM     13  O1  UNL     1       0.950   1.027   1.342  0.00  0.00    +0.000 OA
ATOM     14  C1  UNL     1       0.593   0.525   0.280  0.00  0.00    +0.000 C 
ATOM     15  N2  UNL     1       1.383  -0.188  -0.602  0.00  0.00    +0.000 N 
ATOM     16  C9  UNL     1       2.734  -0.515  -0.401  0.00  0.00    +0.000 A 
ATOM     17  N3  UNL     1       3.341  -0.279   0.776  0.00  0.00    +0.000 NA
ATOM     18  C10 UNL     1       4.643  -0.629   0.894  0.00  0.00    +0.000 A 
ATOM     19  C11 UNL     1       5.377  -1.226  -0.119  0.00  0.00    +0.000 A 
ATOM     20  C12 UNL     1       4.739  -1.481  -1.327  0.00  0.00    +0.000 A 
ATOM     21  C13 UNL     1       3.405  -1.122  -1.464  0.00  0.00    +0.000 A 
ATOM     22  F1  UNL     1       2.766  -1.365  -2.620  0.00  0.00    +0.000 F 
ATOM     23  H   UNL     1       0.964  -0.492  -1.440  0.00  0.00    +0.000 HD
ENDBRANCH   1  14
TORSDOF 1
